<?xml version="1.0" encoding="UTF-8"?>

<!-- generated on Thu Oct 17 21:21:48 2019 by Eclipse SUMO duarouter Version 1.3.1
<configuration xmlns:xsi="http://www.w3.org/2001/XMLSchema-instance" xsi:noNamespaceSchemaLocation="http://sumo.dlr.de/xsd/duarouterConfiguration.xsd">

    <input>
        <net-file value="scenario_tfl.net.xml"/>
        <route-files value="trips.trips.xml"/>
    </input>

    <output>
        <output-file value="200.rou.xml"/>
        <alternatives-output value="200.rou.alt.xml"/>
    </output>

    <time>
        <begin value="0"/>
        <end value="50.0"/>
    </time>

    <report>
        <no-warnings value="true"/>
        <ignore-errors value="true"/>
        <no-step-log value="true"/>
    </report>

</configuration>
-->

<routes xmlns:xsi="http://www.w3.org/2001/XMLSchema-instance" xsi:noNamespaceSchemaLocation="http://sumo.dlr.de/xsd/routes_file.xsd">

<!-- Emergency Vehicle Route -->
    <vType id="EV" length="8.00" vClass="emergency" guiShape="emergency" color="red"/>
    <trip id="trip_0" type="EV" depart="0.00" from="446233233" to="686250326#6" via="446233235 254759928 473325692 473325694#0 473325694#1 8920975#2 8920975#3 686250330 277480425 417087411#0 144489137#8 254758125#0 254758125#2 277480563 277480424#0 277480424#1 686250326#2 686250326#3 686250326#4 686250326#5"/>


    <vehicle id="0" depart="0.00">
        <route edges="546048996#0 546048996#1 417087318 277480564#0 277480564#1 417087411#0 417087411#1 417087411#2"/>
    </vehicle>
    <vehicle id="1" depart="0.25">
        <route edges="686250326#0 686250326#1 277480424#2 277480424#3"/>
    </vehicle>
    <vehicle id="2" depart="0.50">
        <route edges="144489137#3 144489137#4 144489137#5 144489137#6 144489137#7 417087411#1 406581246#0 406581246#1 406581244 91181766#0"/>
    </vehicle>
    <vehicle id="3" depart="0.75">
        <route edges="-397145034 8920975#0 8920975#1 8920975#2 8920975#3 686250330 277480425 254758120#0 254758120#1 254758120#2 254758120#3 254758120#4 254758120#5 254758120#6 277451471#0 277451471#1 277451471#2"/>
    </vehicle>
    <vehicle id="4" depart="1.00">
        <route edges="86303758 225847513#0 225847513#1 398675749#0 398675749#1 398675749#2 -254758120#4 -254758120#3 254758120#3"/>
    </vehicle>
    <vehicle id="5" depart="1.25">
        <route edges="403880760#0 403880760#1 254759942#0 254759942#1 680955161 417087458 263855294#0 263855294#1 263855294#2 8920975#0 8920975#1 8920975#2 8920975#3 686250330 277480425 254758120#0 254758120#1 254758120#2 254758120#3 254758120#4 254758120#5 254758120#6 -254758120#6"/>
    </vehicle>
    <vehicle id="6" depart="1.50">
        <route edges="680955161 417087458 263855294#0 263855294#1 263855294#2 8920975#0 8920975#1 8920975#2 8920975#3 686250330 277480425 254758120#0 254758120#1 254758120#2 -254758120#2"/>
    </vehicle>
    <vehicle id="7" depart="1.75">
        <route edges="225847522#1 225847522#2 686250332#0 686250332#1 686250332#2 254448248#0 254448248#1 30832489#0 30832489#1 225847514"/>
    </vehicle>
    <vehicle id="8" depart="2.00">
        <route edges="144489137#5 144489137#6 144489137#7 417087411#1 406581246#0 254758122#3 254758122#4 254758122#5 254758122#6"/>
    </vehicle>
    <vehicle id="9" depart="2.25">
        <route edges="254758120#4 254758120#5 254758120#6 -225847532#1 -225847532#0 -397170089"/>
    </vehicle>
    <vehicle id="10" depart="2.50">
        <route edges="254448248#1 398675749#0 398675749#1 398675749#2 254758120#5 254758120#6 277451471#0 277451471#1 277451471#2 144489137#2"/>
    </vehicle>
    <vehicle id="11" depart="2.75">
        <route edges="406581244 91181766#0 91181766#1 86303763#3 86303763#4 254758122#2 254758122#3 254758122#4 254758122#5 254758122#6 225847514 -225847514"/>
    </vehicle>
    <vehicle id="12" depart="3.00">
        <route edges="712555565#0 712555565#1 277480424#0 277480424#1 686250326#2 686250326#3 686250326#4 686250326#5 84734271#3 461017935#0 461017935#1 406581245 406581246#0 406581246#1 406581244 91181767 513704711 225847517#0"/>
    </vehicle>
    <vehicle id="13" depart="3.25">
        <route edges="254758124#0 254758124#1 254758124#2 254758124#3 461017935#1 406581245 406581246#0 254758122#3 254758122#4 144489137#4 144489137#5 144489137#6"/>
    </vehicle>
    <vehicle id="14" depart="3.50">
        <route edges="144489137#8 254758125#0 254758125#1 254758125#2 277480564#0 277480564#1 -277480564#1"/>
    </vehicle>
    <vehicle id="15" depart="3.75">
        <route edges="-397170089 397170089 225847513#0 225847513#1 30832489#0 30832489#1 225847514 712555565#0 712555565#1 277480424#0 277480424#1 686250326#2 686250326#3 546048996#0 546048996#1 417087318"/>
    </vehicle>
    <vehicle id="16" depart="4.00">
        <route edges="398675749#6 91181766#0 91181766#1 86303763#3 86303763#4 254758122#2 254758122#3 254758122#4 254758122#5 254758122#6 225847522#0 225847522#1 225847522#2 686250333 473325693#0 473325693#1 408591454 -408591454"/>
    </vehicle>
    <vehicle id="17" depart="4.25">
        <route edges="277480563"/>
    </vehicle>
    <vehicle id="18" depart="4.50">
        <route edges="27400639#0 27400639#1 546048996#0 546048996#1 417087318 277480564#0 277480564#1 254758120#0 254758120#1 254758120#2 254758120#3 254758120#4 254758120#5 254758120#6 -225847532#1"/>
    </vehicle>
    <vehicle id="19" depart="4.75">
        <route edges="-111547662#3 -111547662#2 -111547662#1 -111547662#0 26938124#0 26938124#1 26938124#2 26938124#3 26938124#4 686250327#0 686250327#1 686250329#0 686250329#1 686250328 686250330 -225847514 -30832489#1 -30832489#0"/>
    </vehicle>
    <vehicle id="20" depart="5.00">
        <route edges="225847514 712555565#0 712555565#1 542267688 686250328"/>
    </vehicle>
    <vehicle id="21" depart="5.25">
        <route edges="86303763#2 86303763#3 86303763#4 254758122#2 254758122#3 254758122#4 144489137#4 144489137#5 144489137#6 144489137#7 144489137#8 254758131#0 254758131#1 686250326#5 84734271#3 461017935#0 254758124#4"/>
    </vehicle>
    <vehicle id="22" depart="5.50">
        <route edges="686250326#2 686250326#3 546048996#0 546048996#1 417087318 277480564#0 277480564#1 254758120#0 254758120#1 254758120#2 254758120#3 254758120#4 398675749#3"/>
    </vehicle>
    <vehicle id="23" depart="5.75">
        <route edges="446233233 446233235 254759936 254448248#0 254448248#1 30832489#0 30832489#1 225847514 277480425"/>
    </vehicle>
    <vehicle id="24" depart="6.00">
        <route edges="254758124#1 254758124#2 254758124#3 254758124#4 254758125#0 254758125#1 254758125#2 277480563 542267688 397151342 399193687#0 399193687#1 254759942#0 254759942#1 680955161 417087458 263855294#0 263855294#1 263855294#2 8920975#0 8920975#1 473325694#2"/>
    </vehicle>
    <vehicle id="25" depart="6.25">
        <route edges="225847522#0 225847522#1 225847522#2 686250332#0 686250332#1 686250332#2 254448248#0 254448248#1 398675749#0 398675749#1 398675749#2 398675749#3 398675749#4 398675749#5 398675749#6 91181767 513704711 225847531#0 225847531#1"/>
    </vehicle>
    <vehicle id="26" depart="6.50">
        <route edges="277480564#1 -277480564#1 -277480564#0 277480563 542267688 397151342 397150812 254759927#0 254759927#1 254759927#2 254759927#3 111547662#0 111547662#1 111547662#2"/>
    </vehicle>
    <vehicle id="27" depart="6.75">
        <route edges="-225847514 225847522#0 225847522#1 225847522#2 686250333 473325693#0 473325693#1 408591454 -408591454 -397145034"/>
    </vehicle>
    <vehicle id="28" depart="7.00">
        <route edges="144489137#8 254758125#0 254758125#1 254758125#2 277480563 542267688 397151342 399193687#0 399193687#1 254759942#0 254759942#1 680955161 417087458 263855294#0 263855294#1 263855294#2 397145034"/>
    </vehicle>
    <vehicle id="30" depart="7.50">
        <route edges="86303763#1 86303763#2 86303763#3 86303763#4 254758122#2 254758122#3 254758122#4 144489137#4"/>
    </vehicle>
    <vehicle id="31" depart="7.75">
        <route edges="26938124#4 686250327#0 686250327#1 686250329#0 686250329#1 686250328 686250330 -225847514 -30832489#1"/>
    </vehicle>
    <vehicle id="32" depart="8.00">
        <route edges="254758124#0 254758124#1 254758124#2 254758124#3 461017935#1"/>
    </vehicle>
    <vehicle id="33" depart="8.25">
        <route edges="473325692 473325694#0 473325694#1 8920975#2 8920975#3 686250330 277480425 254758120#0 254758120#1 254758120#2 254758120#3 254758120#4 254758120#5 254758120#6 -254758120#6"/>
    </vehicle>
    <vehicle id="35" depart="8.75">
        <route edges="406581246#1 406581244 91181767 513704711 -297445459#1 -297445459#0 -515595963 -277451471#2 -277451471#1 -277451471#0 -225847532#1 225847532#1"/>
    </vehicle>
    <vehicle id="36" depart="9.00">
        <route edges="86303763#3 86303763#4 254758122#2 254758122#3 254758122#4 254758122#5 254758122#6 225847522#0 225847522#1 225847522#2 686250333 473325694#0 473325694#1 473325694#2 473325695"/>
    </vehicle>
    <vehicle id="37" depart="9.25">
        <route edges="86303763#1 86303763#2 86303763#3 86303763#4 254758122#2 254758122#3 254758122#4 144489137#4 144489137#5 144489137#6 144489137#7 144489137#8 254758131#0 254758131#1 686250326#5 686250326#6 686250326#7"/>
    </vehicle>
    <vehicle id="38" depart="9.50">
        <route edges="254758120#4 398675749#3 398675749#4 144489137#3 144489137#4 144489137#5 144489137#6 144489137#7 144489137#8 254758131#0 254758131#1 254758131#2"/>
    </vehicle>
    <vehicle id="39" depart="9.75">
        <route edges="619979103#1 415517887#0 415517887#1 415517887#2 111547662#0 111547662#1 -111547662#1 -111547662#0 26938124#0 26938124#1 26938124#2 26938124#3 26938124#4 686250326#0 686250326#1 686250326#2 686250326#3 546048996#0 546048996#1 417087318"/>
    </vehicle>
    <vehicle id="40" depart="10.00">
        <route edges="399138118 686250327#0 686250327#1 686250329#0 686250329#1 686250328 686250331#0 686250331#1"/>
    </vehicle>
    <vehicle id="41" depart="10.25">
        <route edges="225847513#0 225847513#1 398675749#0 398675749#1 398675749#2 398675749#3 398675749#4 144489137#3 144489137#4 144489137#5 144489137#6 144489137#7 144489137#8 254758125#0 254758125#1 254758125#2 277480564#0"/>
    </vehicle>
    <vehicle id="42" depart="10.50">
        <route edges="-111547662#3 -111547662#2 -111547662#1 -111547662#0 26938124#0 26938124#1 26938124#2 26938124#3 26938124#4 686250326#0 686250326#1 686250326#2 686250326#3 546048996#0 546048996#1"/>
    </vehicle>
    <vehicle id="43" depart="10.75">
        <route edges="263855294#0 263855294#1 263855294#2 8920975#0 8920975#1 8920975#2 8920975#3 686250330 -225847514 -30832489#1 -30832489#0 -225847513#1 -225847513#0 -397170089"/>
    </vehicle>
    <vehicle id="44" depart="11.00">
        <route edges="473325695 399193687#0 399193687#1 254759942#0 254759942#1 680955161 417087458 263855294#0 263855294#1 263855294#2 8920975#0 8920975#1 8920975#2 8920975#3 686250330 -225847514 -30832489#1 30832489#1"/>
    </vehicle>
    <vehicle id="45" depart="11.25">
        <route edges="473325695 399193687#0 399193687#1 254759942#0 254759942#1 680955161 417087458 263855294#0 263855294#1 263855294#2 8920975#0 8920975#1 8920975#2 8920975#3 686250331#0 686250331#1 686250335 686250332#0 686250332#1 686250332#2 254448252#0"/>
    </vehicle>
    <vehicle id="46" depart="11.50">
        <route edges="-680955161 -254759942#1 254759942#1 680955161 417087458 263855294#0 263855294#1 263855294#2 8920975#0 8920975#1 8920975#2 8920975#3 686250330 -225847514 -30832489#1 -30832489#0 -225847513#1 -225847513#0 -86303758"/>
    </vehicle>
    <vehicle id="47" depart="11.75">
        <route edges="-277480564#1 277480564#1 417087411#0 417087411#1 406581246#0 254758122#3 254758122#4 254758122#5"/>
    </vehicle>
    <vehicle id="48" depart="12.00">
        <route edges="254758120#1 254758120#2 254758122#6 225847522#0 225847522#1 225847522#2 686250333 473325693#0 473325693#1 254759933#0 254759933#1 254759933#2 254759933#3"/>
    </vehicle>
    <vehicle id="49" depart="12.25">
        <route edges="-30832489#0 30832489#0 30832489#1 225847514 -225847514"/>
    </vehicle>
    <vehicle id="51" depart="12.75">
        <route edges="686250328 686250330 277480425 417087411#0 417087411#1 406581246#0 254758122#3 254758122#4 144489137#4 144489137#5"/>
    </vehicle>
    <vehicle id="52" depart="13.00">
        <route edges="686250326#1 686250326#2 686250326#3 686250326#4 686250326#5 84734271#3 461017935#0 461017935#1 406581245 406581246#0 406581246#1"/>
    </vehicle>
    <vehicle id="53" depart="13.25">
        <route edges="619979103#1 415517887#0 415517887#1 415517887#2 111547662#0 111547662#1 -111547662#1 -111547662#0 26938124#0 26938124#1 26938124#2 26938124#3 26938124#4 686250327#0 686250327#1 686250329#0 686250329#1 686250328 686250330 712555565#0"/>
    </vehicle>
    <vehicle id="54" depart="13.50">
        <route edges="26938124#3 26938124#4 686250327#0 686250327#1 686250329#0 686250329#1 686250328 686250330"/>
    </vehicle>
    <vehicle id="55" depart="13.75">
        <route edges="619979103#1 415517887#0 415517887#1 415517887#2 111547662#0 111547662#1 -111547662#1 -111547662#0 26938124#0 26938124#1 26938124#2 26938124#3 26938124#4 686250326#0 686250326#1 686250326#2 686250326#3 686250326#4 686250326#5 84734271#3 461017935#0 461017935#1 406581245 406581246#0 254758122#3"/>
    </vehicle>
    <vehicle id="56" depart="14.00">
        <route edges="-225847514 225847514 712555565#0 712555565#1 542267688 397151342 397150812 60949899#0 60949899#1 26938124#3 26938124#4 686250327#0 686250327#1"/>
    </vehicle>
    <vehicle id="58" depart="14.50">
        <route edges="254758120#3 -254758120#3 254758122#6 225847522#0 225847522#1 225847522#2 686250333 473325693#0 473325693#1 408591454 -408591454 -397145034 8920975#0"/>
    </vehicle>
    <vehicle id="59" depart="14.75">
        <route edges="254758124#2 254758124#3 461017935#1 406581245 406581246#0 406581246#1 406581244 91181766#0 91181766#1 86303763#3"/>
    </vehicle>
    <vehicle id="60" depart="15.00">
        <route edges="8920975#2 8920975#3 686250331#0 686250331#1 686250335 686250333 473325693#0 473325693#1 408591454 27167270#0 27167270#1"/>
    </vehicle>
    <vehicle id="61" depart="15.25">
        <route edges="86303763#0 86303763#1 86303763#2 86303763#3 86303763#4 254758122#2 254758122#3 254758122#4 254758122#5 254758122#6 -30832489#1 -30832489#0"/>
    </vehicle>
    <vehicle id="63" depart="15.75">
        <route edges="686250326#1 686250326#2 686250326#3 546048996#0 546048996#1 417087318 277480564#0 277480564#1 254758120#0 254758120#1 254758120#2 254758120#3 254758120#4 -254758120#4"/>
    </vehicle>
    <vehicle id="64" depart="16.00">
        <route edges="254448252#1 686250339 397170089 225847513#0 225847513#1 30832489#0 30832489#1 225847522#0 225847522#1 225847522#2 686250332#0 686250332#1"/>
    </vehicle>
    <vehicle id="65" depart="16.25">
        <route edges="254448248#1 398675749#0 398675749#1 398675749#2 398675749#3 398675749#4 144489137#3 144489137#4 144489137#5 144489137#6 144489137#7 417087411#1 406581246#0"/>
    </vehicle>
    <vehicle id="66" depart="16.50">
        <route edges="686250328 686250330 -225847514 -30832489#1 -30832489#0 -225847513#1"/>
    </vehicle>
    <vehicle id="67" depart="16.75">
        <route edges="144489137#1 144489137#2 144489137#3 254758122#5 254758122#6 225847522#0 225847522#1 225847522#2 686250333 473325694#0 473325694#1 473325694#2 473325695"/>
    </vehicle>
    <vehicle id="68" depart="17.00">
        <route edges="-225847532#0 225847513#0 225847513#1 398675749#0 398675749#1 398675749#2 398675749#3 398675749#4 144489137#3 144489137#4 144489137#5 144489137#6 144489137#7 144489137#8"/>
    </vehicle>
    <vehicle id="69" depart="17.25">
        <route edges="403880755#1 403880755#2 403880760#0 403880760#1 254759942#0 254759942#1 680955161 417087458 263855294#0 263855294#1 263855294#2 8920975#0 8920975#1 8920975#2 8920975#3 686250330 712555565#0 712555565#1 542267688 397151342"/>
    </vehicle>
    <vehicle id="71" depart="17.75">
        <route edges="619979105#0 619979105#1 403880755#0 403880755#1 403880755#2 403880760#0 403880760#1 254759942#0 254759942#1 680955161 417087458 263855294#0 263855294#1 263855294#2 8920975#0 8920975#1 8920975#2"/>
    </vehicle>
    <vehicle id="73" depart="18.25">
        <route edges="8920975#1 8920975#2 8920975#3 686250330 277480425 417087411#0 144489137#8 254758131#0 254758131#1 254758131#2"/>
    </vehicle>
    <vehicle id="74" depart="18.50">
        <route edges="225847522#2 686250332#0 686250332#1 686250332#2 254448252#0 254448252#1 686250339 397170089"/>
    </vehicle>
    <vehicle id="75" depart="18.75">
        <route edges="277480564#1 417087411#0 417087411#1 406581246#0"/>
    </vehicle>
    <vehicle id="76" depart="19.00">
        <route edges="-225847514 225847522#0 225847522#1 225847522#2 686250332#0 686250332#1 686250332#2 254448252#0 254448252#1 686250339 -446233234#1 446233234#1"/>
    </vehicle>
    <vehicle id="77" depart="19.25">
        <route edges="30832489#0 -30832489#0 398675749#0 398675749#1 398675749#2 -254758120#4 -254758120#3 -254758120#2"/>
    </vehicle>
    <vehicle id="78" depart="19.50">
        <route edges="397170089 225847513#0 225847513#1 30832489#0 30832489#1 225847522#0"/>
    </vehicle>
    <vehicle id="79" depart="19.75">
        <route edges="686250331#0 686250331#1 686250335 686250332#0 686250332#1 686250332#2 254448252#0 254448252#1 686250339 -446233234#1 -446233234#0 446233235"/>
    </vehicle>
    <vehicle id="80" depart="20.00">
        <route edges="254759927#0 254759927#1 254759927#2 254759927#3 111547662#0 111547662#1 -111547662#1 -111547662#0 26938124#0 26938124#1 26938124#2 26938124#3 26938124#4 686250327#0 686250327#1 686250329#0 686250329#1 686250328 686250331#0"/>
    </vehicle>
    <vehicle id="81" depart="20.25">
        <route edges="254448248#1 398675749#0 398675749#1 398675749#2 398675749#3 398675749#4 398675749#5 398675749#6 91181767 513704711 225847531#0 -225847531#0"/>
    </vehicle>
    <vehicle id="82" depart="20.50">
        <route edges="-397170089 397170089 225847513#0 225847513#1 30832489#0 30832489#1 225847514 712555565#0 712555565#1 277480424#0 277480424#1 277480424#2 277480424#3"/>
    </vehicle>
    <vehicle id="83" depart="20.75">
        <route edges="254758122#2 254758122#3 254758122#4 254758122#5 254758122#6 -30832489#1 -30832489#0 398675749#0 398675749#1 398675749#2"/>
    </vehicle>
    <vehicle id="84" depart="21.00">
        <route edges="619979103#1 415517887#0 415517887#1 415517887#2 111547662#0 111547662#1 -111547662#1 -111547662#0 26938124#0 26938124#1 26938124#2 26938124#3 26938124#4 686250326#0 686250326#1 686250326#2 686250326#3 686250326#4 686250326#5 84734271#3 461017935#0 461017935#1 406581245 417087411#2 417087403"/>
    </vehicle>
    <vehicle id="85" depart="21.25">
        <route edges="-397145034 8920975#0 8920975#1 8920975#2 8920975#3 686250330 277480425 417087411#0 417087411#1 406581246#0 406581246#1 406581244"/>
    </vehicle>
    <vehicle id="86" depart="21.50">
        <route edges="91181767 513704711 -297445459#1 -297445459#0 -515595963 144489137#2 144489137#3 254758122#5 254758122#6 225847514"/>
    </vehicle>
    <vehicle id="87" depart="21.75">
        <route edges="417087411#0 417087411#1 406581246#0 254758122#3 254758122#4 254758122#5 254758122#6 225847522#0 225847522#1 225847522#2 686250332#0 686250332#1 686250332#2 254448248#0 254448248#1"/>
    </vehicle>
    <vehicle id="89" depart="22.25">
        <route edges="-30832489#0 30832489#0 30832489#1 225847514 712555565#0 712555565#1 542267688 397151342 397150812 254759927#0 254759927#1 254759927#2 254759927#3 111547662#0 111547662#1 111547662#2 111547662#3"/>
    </vehicle>
    <vehicle id="90" depart="22.50">
        <route edges="254758122#1 254758122#2 254758122#3 254758122#4 254758122#5 -254758120#2 -254758120#1 -254758120#0 417087411#0"/>
    </vehicle>
    <vehicle id="91" depart="22.75">
        <route edges="144489137#1 144489137#2 144489137#3 254758122#5 254758122#6 225847522#0 225847522#1 225847522#2 686250333 473325693#0"/>
    </vehicle>
    <vehicle id="92" depart="23.00">
        <route edges="461017935#1 406581245 406581246#0 254758122#3 254758122#4 144489137#4 144489137#5 144489137#6 144489137#7 144489137#8 254758131#0 254758131#1 686250326#5 84734271#3 461017935#0 254758124#4"/>
    </vehicle>
    <vehicle id="94" depart="23.50">
        <route edges="254448248#1 398675749#0 398675749#1 398675749#2 398675749#3 398675749#4 144489137#3 144489137#4 144489137#5 144489137#6 144489137#7 144489137#8 254758125#0 254758125#1 254758125#2 277480563 542267688 397151342 397150812 254759927#0 254759927#1 254759927#2 254759927#3 111547662#0 111547662#1 111547662#2 111547662#3"/>
    </vehicle>
    <vehicle id="95" depart="23.75">
        <route edges="-619979105#0 619979106#0 619979106#1 619979106#2 619979106#3 26938124#0 26938124#1 26938124#2 26938124#3 26938124#4 686250326#0 686250326#1 686250326#2 686250326#3 686250326#4 686250326#5 84734271#3 461017935#0 254758124#4"/>
    </vehicle>
    <vehicle id="96" depart="24.00">
        <route edges="254758124#1 254758124#2 254758124#3 461017935#1 406581245 406581246#0 406581246#1 406581244 91181766#0 91181766#1 86303763#3"/>
    </vehicle>
    <vehicle id="97" depart="24.25">
        <route edges="399193687#0 399193687#1 254759942#0 254759942#1 680955161 417087458 263855294#0 263855294#1 263855294#2 8920975#0 8920975#1 8920975#2 8920975#3 686250330 -225847514 225847514"/>
    </vehicle>
    <vehicle id="98" depart="24.50">
        <route edges="-397170089 397170089 225847513#0 225847513#1 30832489#0"/>
    </vehicle>
    <vehicle id="99" depart="24.75">
        <route edges="254448248#1"/>
    </vehicle>
    <vehicle id="101" depart="25.25">
        <route edges="254758122#1 254758122#2 254758122#3 254758122#4 144489137#4 144489137#5 144489137#6 144489137#7 144489137#8 254758125#0 254758125#1 254758125#2 277480563 542267688 397151342 397150812 254759927#0 254759927#1 254759927#2"/>
    </vehicle>
    <vehicle id="102" depart="25.50">
        <route edges="8920975#0 8920975#1 473325694#2"/>
    </vehicle>
    <vehicle id="103" depart="25.75">
        <route edges="26938124#3 26938124#4 686250326#0 686250326#1 686250326#2 686250326#3 686250326#4 686250326#5 84734271#3 461017935#0 461017935#1 406581245 406581246#0 406581246#1 406581244 91181766#0 91181766#1 86303763#3 86303763#4 86303763#5"/>
    </vehicle>
    <vehicle id="104" depart="26.00">
        <route edges="277451471#2 144489137#2 144489137#3 144489137#4 144489137#5"/>
    </vehicle>
    <vehicle id="105" depart="26.25">
        <route edges="-277480564#0 277480564#0 277480564#1 254758120#0 254758120#1 254758120#2 254758120#3 -254758120#3"/>
    </vehicle>
    <vehicle id="106" depart="26.50">
        <route edges="84734271#1 84734271#2 84734271#3 461017935#0 461017935#1 406581245 406581246#0"/>
    </vehicle>
    <vehicle id="108" depart="27.00">
        <route edges="619979105#1 26938124#0 26938124#1 26938124#2 26938124#3 26938124#4 686250326#0 686250326#1 686250326#2 686250326#3 686250326#4 686250326#5 84734271#3 461017935#0 461017935#1 406581245 417087411#2 417087403"/>
    </vehicle>
    <vehicle id="109" depart="27.25">
        <route edges="254759936 254448248#0 254448248#1 398675749#0 398675749#1 398675749#2 398675749#3 398675749#4 398675749#5 398675749#6 91181766#0 91181766#1 254759937"/>
    </vehicle>
    <vehicle id="110" depart="27.50">
        <route edges="686250331#1 686250335 686250332#0 686250332#1 686250332#2 254448248#0 254448248#1 30832489#0 30832489#1 225847522#0 225847522#1"/>
    </vehicle>
    <vehicle id="111" depart="27.75">
        <route edges="686250326#3 546048996#0 546048996#1 417087318 277480564#0 277480564#1 254758120#0 254758120#1 254758120#2 254758122#6 225847522#0 225847522#1 225847522#2 686250333 473325693#0"/>
    </vehicle>
    <vehicle id="113" depart="28.25">
        <route edges="86303758 225847532#0 225847532#1 277451471#0 277451471#1 277451471#2 144489137#2"/>
    </vehicle>
    <vehicle id="114" depart="28.50">
        <route edges="27167270#1 27167270#2 -27167270#2 -27167270#1 -27167270#0 -408591454 -397145034 8920975#0 8920975#1 8920975#2 8920975#3 686250331#0 686250331#1 686250335 686250333"/>
    </vehicle>
    <vehicle id="115" depart="28.75">
        <route edges="91181766#1 86303763#3 86303763#4 254758122#2 254758122#3 254758122#4 254758122#5 254758122#6 225847522#0 225847522#1 225847522#2 686250333 473325694#0 473325694#1 473325694#2"/>
    </vehicle>
    <vehicle id="116" depart="29.00">
        <route edges="144489137#8 254758125#0 254758125#1 254758125#2 277480564#0 277480564#1 254758120#0 254758120#1 254758120#2 -254758120#2"/>
    </vehicle>
    <vehicle id="117" depart="29.25">
        <route edges="417087411#1 406581246#0 254758122#3 254758122#4 144489137#4 144489137#5 144489137#6 144489137#7 144489137#8 254758125#0 254758125#1 254758125#2 277480563 542267688 686250328 686250331#0"/>
    </vehicle>
    <vehicle id="118" depart="29.50">
        <route edges="417087318 277480563 277480424#0 277480424#1 686250326#2 686250326#3 686250326#4 686250326#5 84734271#3 461017935#0"/>
    </vehicle>
    <vehicle id="119" depart="29.75">
        <route edges="398675749#3 398675749#4 144489137#3 254758122#5 254758122#6 225847522#0 225847522#1 225847522#2 686250332#0 686250332#1"/>
    </vehicle>
    <vehicle id="120" depart="30.00">
        <route edges="686250333 473325694#0 473325694#1 8920975#2 8920975#3 686250330 277480425 417087411#0 144489137#8 254758131#0 254758131#1 686250326#5"/>
    </vehicle>
    <vehicle id="121" depart="30.25">
        <route edges="91181767 513704711 -297445459#1 -297445459#0 -515595963 144489137#2 144489137#3 144489137#4 144489137#5 144489137#6 144489137#7 417087411#1 417087411#2 417087403"/>
    </vehicle>
    <vehicle id="122" depart="30.50">
        <route edges="254758122#3 254758122#4 254758122#5 254758122#6 225847522#0 225847522#1 225847522#2 686250332#0 686250332#1 686250332#2 254448252#0 254448252#1 686250339 686250338"/>
    </vehicle>
    <vehicle id="123" depart="30.75">
        <route edges="84734271#3 461017935#0 461017935#1 406581245 406581246#0 406581246#1 406581244 91181767 513704711 -297445459#1 -297445459#0 -515595963 -277451471#2 -277451471#1"/>
    </vehicle>
    <vehicle id="124" depart="31.00">
        <route edges="144489137#3 254758122#5 254758122#6 225847514 277480425"/>
    </vehicle>
    <vehicle id="127" depart="31.75">
        <route edges="144489137#1 144489137#2 144489137#3 144489137#4 144489137#5 144489137#6 144489137#7 144489137#8 254758125#0 254758125#1 254758125#2 277480563 277480424#0 277480424#1 277480424#2"/>
    </vehicle>
    <vehicle id="128" depart="32.00">
        <route edges="686250326#4 686250326#5 84734271#3 461017935#0 254758124#4 254758125#0 254758125#1 254758125#2 277480563"/>
    </vehicle>
    <vehicle id="131" depart="32.75">
        <route edges="686250326#4 686250326#5 84734271#3 461017935#0 461017935#1 406581245 406581246#0 254758122#3 254758122#4 254758122#5 254758122#6 225847522#0 225847522#1 225847522#2 686250332#0 686250332#1 686250332#2 254448252#0 254448252#1 686250339 397170089"/>
    </vehicle>
    <vehicle id="132" depart="33.00">
        <route edges="225847514 277480425 254758120#0 254758120#1 254758120#2 254758120#3 254758120#4 254758120#5 254758120#6 502825982"/>
    </vehicle>
    <vehicle id="133" depart="33.25">
        <route edges="-225847513#0 225847513#0 225847513#1 30832489#0 30832489#1 225847522#0 225847522#1 225847522#2 686250333 473325693#0 473325693#1 408591454 27167270#0 27167270#1"/>
    </vehicle>
    <vehicle id="134" depart="33.50">
        <route edges="686250331#1 686250335 686250333 473325694#0 473325694#1 473325694#2 473325695 397150812 254759927#0 254759927#1 254759927#2 254759927#3 111547662#0 111547662#1 111547662#2 111547662#3"/>
    </vehicle>
    <vehicle id="135" depart="33.75">
        <route edges="144489137#3 254758122#5 254758120#3 254758120#4 254758120#5 254758120#6 -225847532#1 225847532#1"/>
    </vehicle>
    <vehicle id="136" depart="34.00">
        <route edges="686250329#0 686250329#1 686250328 686250330 277480425 254758120#0"/>
    </vehicle>
    <vehicle id="137" depart="34.25">
        <route edges="144489137#8 254758125#0 254758125#1 254758125#2 277480563 277480424#0 277480424#1 277480424#2"/>
    </vehicle>
    <vehicle id="138" depart="34.50">
        <route edges="-225847532#1 -225847532#0 225847513#0 225847513#1 30832489#0 30832489#1 225847522#0 225847522#1 225847522#2 686250333 473325693#0 473325693#1 408591454 27167270#0 27167270#1 27167270#2 -27167270#2 -27167270#1"/>
    </vehicle>
    <vehicle id="139" depart="34.75">
        <route edges="-277451471#1 -277451471#0 -225847532#1 225847532#1"/>
    </vehicle>
    <vehicle id="140" depart="35.00">
        <route edges="397151342 397150812 60949899#0 60949899#1 26938124#3 26938124#4 686250326#0 686250326#1 686250326#2 686250326#3"/>
    </vehicle>
    <vehicle id="141" depart="35.25">
        <route edges="225847513#0 225847513#1 30832489#0 30832489#1 225847514 712555565#0 712555565#1 277480424#0 277480424#1 277480424#2 277480424#3"/>
    </vehicle>
    <vehicle id="142" depart="35.50">
        <route edges="26938124#3 26938124#4 686250327#0 686250327#1 686250329#0 686250329#1 686250328 686250331#0 686250331#1 686250335 686250332#0 686250332#1 686250332#2 254448252#0 254448252#1 686250339 -446233234#1 -446233234#0 446233235"/>
    </vehicle>
    <vehicle id="143" depart="35.75">
        <route edges="35973460#1 417087458 263855294#0 263855294#1 263855294#2 397145034 408591454"/>
    </vehicle>
    <vehicle id="144" depart="36.00">
        <route edges="-277480564#1 -277480564#0 277480563 542267688 686250328 686250330 -225847514"/>
    </vehicle>
    <vehicle id="148" depart="37.00">