<?xml version="1.0" encoding="UTF-8"?>
<!-- generated on 2019-10-17 21:21:47.601844 by $Id$
  options: -n scenario_tfl.net.xml -r 200.rou.xml -p 0.25 -e 50 -l
-->
<routes xmlns:xsi="http://www.w3.org/2001/XMLSchema-instance" xsi:noNamespaceSchemaLocation="http://sumo.dlr.de/xsd/routes_file.xsd">
    <trip id="0" depart="0.00" from="546048996#0" to="417087411#2"/>
    <trip id="1" depart="0.25" from="686250326#0" to="277480424#3"/>
    <trip id="2" depart="0.50" from="144489137#3" to="91181766#0"/>
    <trip id="3" depart="0.75" from="-397145034" to="277451471#2"/>
    <trip id="4" depart="1.00" from="86303758" to="254758120#3"/>
    <trip id="5" depart="1.25" from="403880760#0" to="-254758120#6"/>
    <trip id="6" depart="1.50" from="680955161" to="-254758120#2"/>
    <trip id="7" depart="1.75" from="225847522#1" to="225847514"/>
    <trip id="8" depart="2.00" from="144489137#5" to="254758122#6"/>
    <trip id="9" depart="2.25" from="254758120#4" to="-397170089"/>
    <trip id="10" depart="2.50" from="254448248#1" to="144489137#2"/>
    <trip id="11" depart="2.75" from="406581244" to="-225847514"/>
    <trip id="12" depart="3.00" from="712555565#0" to="225847517#0"/>
    <trip id="13" depart="3.25" from="254758124#0" to="144489137#6"/>
    <trip id="14" depart="3.50" from="144489137#8" to="-277480564#1"/>
    <trip id="15" depart="3.75" from="-397170089" to="417087318"/>
    <trip id="16" depart="4.00" from="398675749#6" to="-408591454"/>
    <trip id="17" depart="4.25" from="277480563" to="277480563"/>
    <trip id="18" depart="4.50" from="27400639#0" to="-225847532#1"/>
    <trip id="19" depart="4.75" from="-111547662#3" to="-30832489#0"/>
    <trip id="20" depart="5.00" from="225847514" to="686250328"/>
    <trip id="21" depart="5.25" from="86303763#2" to="254758124#4"/>
    <trip id="22" depart="5.50" from="686250326#2" to="398675749#3"/>
    <trip id="23" depart="5.75" from="446233233" to="277480425"/>
    <trip id="24" depart="6.00" from="254758124#1" to="473325694#2"/>
    <trip id="25" depart="6.25" from="225847522#0" to="225847531#1"/>
    <trip id="26" depart="6.50" from="277480564#1" to="111547662#2"/>
    <trip id="27" depart="6.75" from="-225847514" to="-397145034"/>
    <trip id="28" depart="7.00" from="144489137#8" to="397145034"/>
    <trip id="29" depart="7.25" from="-254758120#6" to="86303763#1"/>
    <trip id="30" depart="7.50" from="86303763#1" to="144489137#4"/>
    <trip id="31" depart="7.75" from="26938124#4" to="-30832489#1"/>
    <trip id="32" depart="8.00" from="254758124#0" to="461017935#1"/>
    <trip id="33" depart="8.25" from="473325692" to="-254758120#6"/>
    <trip id="34" depart="8.50" from="399193687#0" to="399138123#2"/>
    <trip id="35" depart="8.75" from="406581246#1" to="225847532#1"/>
    <trip id="36" depart="9.00" from="86303763#3" to="473325695"/>
    <trip id="37" depart="9.25" from="86303763#1" to="686250326#7"/>
    <trip id="38" depart="9.50" from="254758120#4" to="254758131#2"/>
    <trip id="39" depart="9.75" from="619979103#1" to="417087318"/>
    <trip id="40" depart="10.00" from="399138118" to="686250331#1"/>
    <trip id="41" depart="10.25" from="225847513#0" to="277480564#0"/>
    <trip id="42" depart="10.50" from="-111547662#3" to="546048996#1"/>
    <trip id="43" depart="10.75" from="263855294#0" to="-397170089"/>
    <trip id="44" depart="11.00" from="473325695" to="30832489#1"/>
    <trip id="45" depart="11.25" from="473325695" to="254448252#0"/>
    <trip id="46" depart="11.50" from="-680955161" to="-86303758"/>
    <trip id="47" depart="11.75" from="-277480564#1" to="254758122#5"/>
    <trip id="48" depart="12.00" from="254758120#1" to="254759933#3"/>
    <trip id="49" depart="12.25" from="-30832489#0" to="-225847514"/>
    <trip id="50" depart="12.50" from="254759933#1" to="225847513#0"/>
    <trip id="51" depart="12.75" from="686250328" to="144489137#5"/>
    <trip id="52" depart="13.00" from="686250326#1" to="406581246#1"/>
    <trip id="53" depart="13.25" from="619979103#1" to="712555565#0"/>
    <trip id="54" depart="13.50" from="26938124#3" to="686250330"/>
    <trip id="55" depart="13.75" from="619979103#1" to="254758122#3"/>
    <trip id="56" depart="14.00" from="-225847514" to="686250327#1"/>
    <trip id="57" depart="14.25" from="86303763#5" to="446233235"/>
    <trip id="58" depart="14.50" from="254758120#3" to="8920975#0"/>
    <trip id="59" depart="14.75" from="254758124#2" to="86303763#3"/>
    <trip id="60" depart="15.00" from="8920975#2" to="27167270#1"/>
    <trip id="61" depart="15.25" from="86303763#0" to="-30832489#0"/>
    <trip id="62" depart="15.50" from="473325694#2" to="513704174#1"/>
    <trip id="63" depart="15.75" from="686250326#1" to="-254758120#4"/>
    <trip id="64" depart="16.00" from="254448252#1" to="686250332#1"/>
    <trip id="65" depart="16.25" from="254448248#1" to="406581246#0"/>
    <trip id="66" depart="16.50" from="686250328" to="-225847513#1"/>
    <trip id="67" depart="16.75" from="144489137#1" to="473325695"/>
    <trip id="68" depart="17.00" from="-225847532#0" to="144489137#8"/>
    <trip id="69" depart="17.25" from="403880755#1" to="397151342"/>
    <trip id="70" depart="17.50" from="254759933#0" to="254758124#1"/>
    <trip id="71" depart="17.75" from="619979105#0" to="8920975#2"/>
    <trip id="72" depart="18.00" from="417087411#1" to="403880755#2"/>
    <trip id="73" depart="18.25" from="8920975#1" to="254758131#2"/>
    <trip id="74" depart="18.50" from="225847522#2" to="397170089"/>
    <trip id="75" depart="18.75" from="277480564#1" to="406581246#0"/>
    <trip id="76" depart="19.00" from="-225847514" to="446233234#1"/>
    <trip id="77" depart="19.25" from="30832489#0" to="-254758120#2"/>
    <trip id="78" depart="19.50" from="397170089" to="225847522#0"/>
    <trip id="79" depart="19.75" from="686250331#0" to="446233235"/>
    <trip id="80" depart="20.00" from="254759927#0" to="686250331#0"/>
    <trip id="81" depart="20.25" from="254448248#1" to="-225847531#0"/>
    <trip id="82" depart="20.50" from="-397170089" to="277480424#3"/>
    <trip id="83" depart="20.75" from="254758122#2" to="398675749#2"/>
    <trip id="84" depart="21.00" from="619979103#1" to="417087403"/>
    <trip id="85" depart="21.25" from="-397145034" to="406581244"/>
    <trip id="86" depart="21.50" from="91181767" to="225847514"/>
    <trip id="87" depart="21.75" from="417087411#0" to="254448248#1"/>
    <trip id="88" depart="22.00" from="254758131#1" to="403880755#2"/>
    <trip id="89" depart="22.25" from="-30832489#0" to="111547662#3"/>
    <trip id="90" depart="22.50" from="254758122#1" to="417087411#0"/>
    <trip id="91" depart="22.75" from="144489137#1" to="473325693#0"/>
    <trip id="92" depart="23.00" from="461017935#1" to="254758124#4"/>
    <trip id="93" depart="23.25" from="254758122#1" to="84734271#1"/>
    <trip id="94" depart="23.50" from="254448248#1" to="111547662#3"/>
    <trip id="95" depart="23.75" from="-619979105#0" to="254758124#4"/>
    <trip id="96" depart="24.00" from="254758124#1" to="86303763#3"/>
    <trip id="97" depart="24.25" from="399193687#0" to="225847514"/>
    <trip id="98" depart="24.50" from="-397170089" to="30832489#0"/>
    <trip id="99" depart="24.75" from="254448248#1" to="254448248#1"/>
    <trip id="100" depart="25.00" from="446233233" to="27400639#1"/>
    <trip id="101" depart="25.25" from="254758122#1" to="254759927#2"/>
    <trip id="102" depart="25.50" from="8920975#0" to="473325694#2"/>
    <trip id="103" depart="25.75" from="26938124#3" to="86303763#5"/>
    <trip id="104" depart="26.00" from="277451471#2" to="144489137#5"/>
    <trip id="105" depart="26.25" from="-277480564#0" to="-254758120#3"/>
    <trip id="106" depart="26.50" from="84734271#1" to="406581246#0"/>
    <trip id="107" depart="26.75" from="144489137#3" to="619979106#1"/>
    <trip id="108" depart="27.00" from="619979105#1" to="417087403"/>
    <trip id="109" depart="27.25" from="254759936" to="254759937"/>
    <trip id="110" depart="27.50" from="686250331#1" to="225847522#1"/>
    <trip id="111" depart="27.75" from="686250326#3" to="473325693#0"/>
    <trip id="112" depart="28.00" from="-254758120#2" to="144489137#1"/>
    <trip id="113" depart="28.25" from="86303758" to="144489137#2"/>
    <trip id="114" depart="28.50" from="27167270#1" to="686250333"/>
    <trip id="115" depart="28.75" from="91181766#1" to="473325694#2"/>
    <trip id="116" depart="29.00" from="144489137#8" to="-254758120#2"/>
    <trip id="117" depart="29.25" from="417087411#1" to="686250331#0"/>
    <trip id="118" depart="29.50" from="417087318" to="461017935#0"/>
    <trip id="119" depart="29.75" from="398675749#3" to="686250332#1"/>
    <trip id="120" depart="30.00" from="686250333" to="686250326#5"/>
    <trip id="121" depart="30.25" from="91181767" to="417087403"/>
    <trip id="122" depart="30.50" from="254758122#3" to="686250338"/>
    <trip id="123" depart="30.75" from="84734271#3" to="-277451471#1"/>
    <trip id="124" depart="31.00" from="144489137#3" to="277480425"/>
    <trip id="125" depart="31.25" from="86303763#5" to="-277480564#0"/>
    <trip id="126" depart="31.50" from="86303758" to="619979106#1"/>
    <trip id="127" depart="31.75" from="144489137#1" to="277480424#2"/>
    <trip id="128" depart="32.00" from="686250326#4" to="277480563"/>
    <trip id="129" depart="32.25" from="86303763#5" to="144489137#1"/>
    <trip id="130" depart="32.50" from="446233234#0" to="254758122#1"/>
    <trip id="131" depart="32.75" from="686250326#4" to="397170089"/>
    <trip id="132" depart="33.00" from="225847514" to="502825982"/>
    <trip id="133" depart="33.25" from="-225847513#0" to="27167270#1"/>
    <trip id="134" depart="33.50" from="686250331#1" to="111547662#3"/>
    <trip id="135" depart="33.75" from="144489137#3" to="225847532#1"/>
    <trip id="136" depart="34.00" from="686250329#0" to="254758120#0"/>
    <trip id="137" depart="34.25" from="144489137#8" to="277480424#2"/>
    <trip id="138" depart="34.50" from="-225847532#1" to="-27167270#1"/>
    <trip id="139" depart="34.75" from="-277451471#1" to="225847532#1"/>
    <trip id="140" depart="35.00" from="397151342" to="686250326#3"/>
    <trip id="141" depart="35.25" from="225847513#0" to="277480424#3"/>
    <trip id="142" depart="35.50" from="26938124#3" to="446233235"/>
    <trip id="143" depart="35.75" from="35973460#1" to="408591454"/>
    <trip id="144" depart="36.00" from="-277480564#1" to="-225847514"/>
    <trip id="145" depart="36.25" from="144489137#8" to="254758122#1"/>
    <trip id="146" depart="36.50" from="513704174#1" to="144489137#1"/>
    <trip id="147" depart="36.75" from="686250328" to="86303763#1"/>
    <trip id="148" depart="37.00" from="461017935#1" to="30832489#0"/>
    <trip id="149" depart="37.25" from="515595963" to="-225847514"/>
    <trip id="150" depart="37.50" from="144489137#1" to="-111547662#2"/>
    <trip id="151" depart="37.75" from="8920975#1" to="686250338"/>
    <trip id="152" depart="38.00" from="254758122#0" to="86303763#5"/>
    <trip id="153" depart="38.25" from="254758131#0" to="-86303758"/>
    <trip id="154" depart="38.50" from="-27167270#1" to="144489137#3"/>
    <trip id="155" depart="38.75" from="-254758120#4" to="686250332#1"/>
    <trip id="156" depart="39.00" from="27400639#1" to="277480424#3"/>
    <trip id="157" depart="39.25" from="91181767" to="686250330"/>
    <trip id="158" depart="39.50" from="446233233" to="513704174#1"/>
    <trip id="159" depart="39.75" from="254759936" to="254758122#4"/>
    <trip id="160" depart="40.00" from="254758124#2" to="225847532#0"/>
    <trip id="161" depart="40.25" from="415517887#0" to="254758122#5"/>
    <trip id="162" depart="40.50" from="398675749#3" to="-446233234#0"/>
    <trip id="163" depart="40.75" from="277480424#1" to="144489137#2"/>
    <trip id="164" depart="41.00" from="-397145034" to="254758120#4"/>
    <trip id="165" depart="41.25" from="473325694#1" to="254758122#2"/>
    <trip id="166" depart="41.50" from="225847513#0" to="417087411#0"/>
    <trip id="167" depart="41.75" from="26938124#1" to="680955161"/>
    <trip id="168" depart="42.00" from="473325693#1" to="686250326#1"/>
    <trip id="169" depart="42.25" from="473325694#2" to="406581245"/>
    <trip id="170" depart="42.50" from="254759928" to="473325694#2"/>
    <trip id="171" depart="42.75" from="686250339" to="398675749#0"/>
    <trip id="172" depart="43.00" from="84734271#2" to="446233235"/>
    <trip id="173" depart="43.25" from="406581246#1" to="398675749#4"/>
    <trip id="174" depart="43.50" from="473325694#2" to="686250332#1"/>
    <trip id="175" depart="43.75" from="254448252#1" to="277480563"/>
    <trip id="176" depart="44.00" from="-111547662#2" to="225847531#1"/>
    <trip id="177" depart="44.25" from="398675749#5" to="686250333"/>
    <trip id="178" depart="44.50" from="-397145034" to="-706533480#0"/>
    <trip id="179" depart="44.75" from="254758120#3" to="446233234#0"/>
    <trip id="180" depart="45.00" from="26938124#3" to="254758120#3"/>
    <trip id="181" depart="45.25" from="473325694#0" to="277451471#1"/>
    <trip id="182" depart="45.50" from="-254758120#5" to="417087411#2"/>
    <trip id="183" depart="45.75" from="254758131#0" to="686250332#1"/>
    <trip id="184" depart="46.00" from="619979105#0" to="473325694#1"/>
    <trip id="185" depart="46.25" from="399193687#0" to="86303763#1"/>
    <trip id="186" depart="46.50" from="446233235" to="397150812"/>
    <trip id="187" depart="46.75" from="461017935#0" to="-397170089"/>
    <trip id="188" depart="47.00" from="84734271#1" to="473325695"/>
    <trip id="189" depart="47.25" from="254758122#0" to="686250326#2"/>
    <trip id="190" depart="47.50" from="254448248#0" to="-254758120#2"/>
    <trip id="191" depart="47.75" from="277480564#1" to="254759928"/>
    <trip id="192" depart="48.00" from="254759933#1" to="84734271#1"/>
    <trip id="193" depart="48.25" from="86303758" to="254758122#5"/>
    <trip id="194" depart="48.50" from="406581246#1" to="473325693#0"/>
    <trip id="195" depart="48.75" from="417087403" to="-254758120#5"/>
    <trip id="196" depart="49.00" from="30832489#0" to="712555565#0"/>
    <trip id="197" depart="49.25" from="254758122#0" to="686250332#0"/>
    <trip id="198" depart="49.50" from="686250332#1" to="686250326#0"/>
    <trip id="199" depart="49.75" from="254448248#1" to="542267688"/>
</routes>
