<?xml version="1.0" encoding="UTF-8"?>

<!-- generated on Thu Oct 17 20:28:00 2019 by Eclipse SUMO duarouter Version 1.3.1
<configuration xmlns:xsi="http://www.w3.org/2001/XMLSchema-instance" xsi:noNamespaceSchemaLocation="http://sumo.dlr.de/xsd/duarouterConfiguration.xsd">

    <input>
        <net-file value="50_ntfl.net.xml"/>
        <route-files value="trips.trips.xml"/>
    </input>

    <output>
        <output-file value="50_ntfl.rou.xml"/>
        <alternatives-output value="50_ntfl.rou.alt.xml"/>
    </output>

    <time>
        <begin value="0"/>
        <end value="50.0"/>
    </time>

    <report>
        <no-warnings value="true"/>
        <ignore-errors value="true"/>
        <no-step-log value="true"/>
    </report>

</configuration>
-->

<routes xmlns:xsi="http://www.w3.org/2001/XMLSchema-instance" xsi:noNamespaceSchemaLocation="http://sumo.dlr.de/xsd/routes_file.xsd">

	<!-- Emergency Vehicle Route -->
    <vType id="EV" length="8.00" vClass="emergency" guiShape="emergency" color="red"/>
    <trip id="trip_0" type="EV" depart="0.00" from="446233233" to="686250326#6" via="446233235 254759928 473325692 473325694#0 473325694#1 8920975#2 8920975#3 686250330 277480425 417087411#0 144489137#8 254758125#0 254758125#2 277480563 277480424#0 277480424#1 686250326#2 686250326#3 686250326#4 686250326#5"/>

    <vehicle id="1" depart="1.00">
        <route edges="144489137#1 144489137#2 144489137#3 254758122#5 254758122#6 225847522#0 225847522#1 225847522#2 686250333 473325694#0 473325694#1 473325694#2"/>
    </vehicle>
    <vehicle id="2" depart="2.00">
        <route edges="277480564#1"/>
    </vehicle>
    <vehicle id="3" depart="3.00">
        <route edges="277451471#0 277451471#1 277451471#2 144489137#2 144489137#3 144489137#4 144489137#5 144489137#6 144489137#7 144489137#8 254758125#0 254758125#1 254758125#2 277480563 542267688 397151342 399193687#0 399193687#1 254759942#0 254759942#1 680955161 417087458 263855294#0 263855294#1 263855294#2 8920975#0 8920975#1"/>
    </vehicle>
    <vehicle id="4" depart="4.00">
        <route edges="277480424#1 686250326#2 686250326#3 686250326#4 686250326#5 84734271#3 461017935#0 461017935#1 406581245 406581246#0"/>
    </vehicle>
    <vehicle id="7" depart="7.00">
        <route edges="254758122#1 254758122#2 406581246#1 406581244 91181767"/>
    </vehicle>
    <vehicle id="8" depart="8.00">
        <route edges="254758120#5 -254758120#5 398675749#3 398675749#4 144489137#3 144489137#4 144489137#5 144489137#6 144489137#7 144489137#8 254758125#0 254758125#1 254758125#2 277480563 542267688 397151342 397150812 60949899#0 60949899#1 26938124#3"/>
    </vehicle>
    <vehicle id="10" depart="10.00">
        <route edges="686250331#1 686250335 686250332#0 686250332#1 686250332#2 254448248#0 254448248#1 398675749#0 398675749#1 398675749#2 398675749#3 398675749#4 144489137#3 144489137#4 144489137#5 144489137#6 144489137#7 144489137#8 254758131#0 254758131#1 686250326#5 84734271#3 461017935#0"/>
    </vehicle>
    <vehicle id="11" depart="11.00">
        <route edges="399193687#0 399193687#1 254759942#0 254759942#1 680955161 417087458 263855294#0 263855294#1 263855294#2 8920975#0 8920975#1 8920975#2 8920975#3 686250330 277480425 417087411#0 417087411#1 406581246#0"/>
    </vehicle>
    <vehicle id="12" depart="12.00">
        <route edges="254758124#1 254758124#2 254758124#3 461017935#1 406581245 406581246#0 254758122#3 254758122#4 254758122#5 254758122#6 -30832489#1 -30832489#0 30832489#0"/>
    </vehicle>
    <vehicle id="14" depart="14.00">
        <route edges="399138123#2 254759936 254448248#0 254448248#1 398675749#0 398675749#1 398675749#2 398675749#3 398675749#4 398675749#5 398675749#6 91181766#0 91181766#1 254759937"/>
    </vehicle>
    <vehicle id="15" depart="15.00">
        <route edges="542267688 686250328 686250330 -225847514 -30832489#1 -30832489#0 398675749#0 398675749#1 398675749#2 398675749#3 398675749#4 398675749#5 398675749#6"/>
    </vehicle>
    <vehicle id="16" depart="16.00">
        <route edges="144489137#5 144489137#6 144489137#7 144489137#8 254758125#0 254758125#1 254758125#2 277480563 542267688 397151342 397150812 254759927#0 254759927#1 254759927#2 254759927#3 111547662#0 111547662#1 111547662#2 111547662#3"/>
    </vehicle>
    <vehicle id="17" depart="17.00">
        <route edges="-254758120#4 -254758120#3 -254758120#2 -254758120#1 -254758120#0 417087411#0 144489137#8 254758131#0 254758131#1 686250326#5 84734271#3"/>
    </vehicle>
    <vehicle id="18" depart="18.00">
        <route edges="26938124#4 686250326#0 686250326#1 686250326#2 686250326#3 546048996#0 546048996#1 417087318 277480564#0 277480564#1 417087411#0 417087411#1"/>
    </vehicle>
    <vehicle id="20" depart="20.00">
        <route edges="254759942#1 680955161 417087458 263855294#0 263855294#1 263855294#2 8920975#0 8920975#1 8920975#2 8920975#3 686250330 712555565#0 712555565#1 277480424#0 277480424#1 686250326#2 686250326#3"/>
    </vehicle>
    <vehicle id="21" depart="21.00">
        <route edges="254758120#3 -254758120#3 -254758120#2 -254758120#1 -254758120#0 -277480564#1 -277480564#0 277480563 542267688 397151342 397150812 254759927#0 254759927#1 254759927#2 254759927#3 111547662#0 111547662#1 111547662#2 -111547662#2"/>
    </vehicle>
    <vehicle id="22" depart="22.00">
        <route edges="30832489#0 -30832489#0 -225847513#1 -225847513#0 -397170089 686250338"/>
    </vehicle>
    <vehicle id="23" depart="23.00">
        <route edges="254758122#6 225847522#0 225847522#1 225847522#2 686250332#0 686250332#1 686250332#2 254448252#0 254448252#1 686250339 -446233234#1 -446233234#0 446233235 254759936"/>
    </vehicle>
    <vehicle id="24" depart="24.00">
        <route edges="619979105#0 619979105#1 26938124#0 26938124#1 26938124#2 26938124#3 26938124#4 686250326#0 686250326#1 686250326#2 686250326#3 686250326#4 686250326#5 84734271#3 461017935#0 461017935#1 406581245 406581246#0 406581246#1 406581244 91181766#0 91181766#1 254759937"/>
    </vehicle>
    <vehicle id="26" depart="26.00">
        <route edges="254758124#0 254758124#1 254758124#2 254758124#3 461017935#1 406581245 406581246#0 406581246#1 406581244 91181767 513704711 225847517#0"/>
    </vehicle>
    <vehicle id="27" depart="27.00">
        <route edges="254758125#0 254758125#1 254758125#2 277480564#0 277480564#1 417087411#0 417087411#1 406581246#0 406581246#1 406581244 91181767 513704711 225847531#0 225847531#1 -225847531#1"/>
    </vehicle>
    <vehicle id="28" depart="28.00">
        <route edges="91181767 513704711 -297445459#1 -297445459#0 -515595963 144489137#2 144489137#3 254758122#5 254758122#6 225847522#0 225847522#1 225847522#2 686250332#0 686250332#1"/>
    </vehicle>
    <vehicle id="30" depart="30.00">
        <route edges="686250330 277480425 417087411#0 144489137#8 254758131#0 254758131#1 686250326#5 84734271#3 461017935#0"/>
    </vehicle>
    <vehicle id="31" depart="31.00">
        <route edges="-277451471#1 277451471#1 277451471#2 144489137#2 144489137#3 144489137#4 144489137#5 144489137#6 144489137#7 144489137#8 254758131#0 254758131#1"/>
    </vehicle>
    <vehicle id="33" depart="33.00">
        <route edges="686250327#1 686250329#0 686250329#1 397151342 399193687#0 399193687#1 254759942#0 254759942#1 680955161 417087458 263855294#0 263855294#1 263855294#2 397145034 254759933#0 254759933#1 254759933#2 254759933#3"/>
    </vehicle>
    <vehicle id="35" depart="35.00">
        <route edges="680955161 417087458 263855294#0 263855294#1 263855294#2 8920975#0 8920975#1 8920975#2 8920975#3 686250330 277480425 417087411#0 144489137#8"/>
    </vehicle>
    <vehicle id="36" depart="36.00">
        <route edges="446233233 446233235 254759936 254448248#0 254448248#1 30832489#0 -30832489#0"/>
    </vehicle>
    <vehicle id="37" depart="37.00">
        <route edges="254758125#2 277480563 542267688 686250328 686250331#0 686250331#1 686250335 686250332#0 686250332#1 686250332#2 254448252#0 254448252#1 686250339 -446233234#1 -446233234#0 446233235 254759928"/>
    </vehicle>
    <vehicle id="40" depart="40.00">
        <route edges="254758125#1 254758125#2 277480563 542267688 397151342 399193687#0 399193687#1 254759942#0 254759942#1 680955161 417087458 263855294#0 263855294#1 263855294#2 8920975#0 8920975#1 473325694#2 473325695"/>
    </vehicle>
    <vehicle id="41" depart="41.00">
        <route edges="686250328 686250330 277480425 417087411#0 144489137#8 254758131#0 254758131#1 254758131#2"/>
    </vehicle>
    <vehicle id="42" depart="42.00">
        <route edges="686250331#0 686250331#1 686250335 686250332#0 686250332#1 686250332#2 254448248#0 254448248#1 398675749#0 398675749#1 398675749#2 398675749#3 398675749#4 144489137#3 144489137#4 144489137#5 144489137#6 144489137#7 144489137#8 254758125#0 254758125#1 254758125#2"/>
    </vehicle>
    <vehicle id="43" depart="43.00">
        <route edges="30832489#0 -30832489#0 398675749#0 398675749#1 398675749#2 398675749#3 398675749#4 398675749#5 398675749#6 91181767"/>
    </vehicle>
    <vehicle id="45" depart="45.00">
        <route edges="91181766#0 91181766#1 86303763#3 86303763#4 254758122#2 254758122#3 254758122#4 254758122#5 254758122#6 225847522#0 225847522#1 225847522#2 686250333 473325693#0 473325693#1 408591454 -408591454 -397145034"/>
    </vehicle>
    <vehicle id="46" depart="46.00">
        <route edges="254758122#4 254758122#5 -254758120#2"/>
    </vehicle>
    <vehicle id="47" depart="47.00">
        <route edges="91181766#1 86303763#3 86303763#4 254758122#2 254758122#3 254758122#4 254758122#5 254758122#6 225847522#0 225847522#1 225847522#2 686250333 473325694#0 473325694#1 473325694#2 473325695"/>
    </vehicle>
    <vehicle id="48" depart="48.00">
        <route edges="686250331#1 686250335 686250332#0 686250332#1 686250332#2 254448248#0 254448248#1 398675749#0 398675749#1 398675749#2 254758120#5 254758120#6 277451471#0 277451471#1 -277451471#1"/>
    </vehicle>
    <vehicle id="49" depart="49.00">
        <route edges="513704711 -297445459#1 -297445459#0 -515595963 144489137#2 144489137#3 144489137#4 144489137#5 144489137#6 144489137#7 144489137#8 254758125#0 254758125#1 254758125#2 277480563 542267688 397151342 397150812"/>
    </vehicle>
</routes>
