<?xml version="1.0" encoding="UTF-8"?>
<!-- generated on 2019-10-17 20:27:59.304871 by $Id$
  options: -n 50_ntfl.net.xml -r 50_ntfl.rou.xml -e 50 -l
-->
<routes xmlns:xsi="http://www.w3.org/2001/XMLSchema-instance" xsi:noNamespaceSchemaLocation="http://sumo.dlr.de/xsd/routes_file.xsd">
    <trip id="0" depart="0.00" from="254758120#4" to="27400639#1"/>
    <trip id="1" depart="1.00" from="144489137#1" to="473325694#2"/>
    <trip id="2" depart="2.00" from="277480564#1" to="277480564#1"/>
    <trip id="3" depart="3.00" from="277451471#0" to="8920975#1"/>
    <trip id="4" depart="4.00" from="277480424#1" to="406581246#0"/>
    <trip id="5" depart="5.00" from="397145034" to="254758124#1"/>
    <trip id="6" depart="6.00" from="84734271#3" to="254758124#3"/>
    <trip id="7" depart="7.00" from="254758122#1" to="91181767"/>
    <trip id="8" depart="8.00" from="254758120#5" to="26938124#3"/>
    <trip id="9" depart="9.00" from="254758124#0" to="27400639#1"/>
    <trip id="10" depart="10.00" from="686250331#1" to="461017935#0"/>
    <trip id="11" depart="11.00" from="399193687#0" to="406581246#0"/>
    <trip id="12" depart="12.00" from="254758124#1" to="30832489#0"/>
    <trip id="13" depart="13.00" from="473325694#1" to="403880755#2"/>
    <trip id="14" depart="14.00" from="399138123#2" to="254759937"/>
    <trip id="15" depart="15.00" from="542267688" to="398675749#6"/>
    <trip id="16" depart="16.00" from="144489137#5" to="111547662#3"/>
    <trip id="17" depart="17.00" from="-254758120#4" to="84734271#3"/>
    <trip id="18" depart="18.00" from="26938124#4" to="417087411#1"/>
    <trip id="19" depart="19.00" from="446233233" to="513704174#1"/>
    <trip id="20" depart="20.00" from="254759942#1" to="686250326#3"/>
    <trip id="21" depart="21.00" from="254758120#3" to="-111547662#2"/>
    <trip id="22" depart="22.00" from="30832489#0" to="686250338"/>
    <trip id="23" depart="23.00" from="254758122#6" to="254759936"/>
    <trip id="24" depart="24.00" from="619979105#0" to="254759937"/>
    <trip id="25" depart="25.00" from="-397145034" to="619979103#1"/>
    <trip id="26" depart="26.00" from="254758124#0" to="225847517#0"/>
    <trip id="27" depart="27.00" from="254758125#0" to="-225847531#1"/>
    <trip id="28" depart="28.00" from="91181767" to="686250332#1"/>
    <trip id="29" depart="29.00" from="446233234#0" to="254758122#1"/>
    <trip id="30" depart="30.00" from="686250330" to="461017935#0"/>
    <trip id="31" depart="31.00" from="-277451471#1" to="254758131#1"/>
    <trip id="32" depart="32.00" from="225847531#1" to="619979106#1"/>
    <trip id="33" depart="33.00" from="686250327#1" to="254759933#3"/>
    <trip id="34" depart="34.00" from="254448252#1" to="-619979105#1"/>
    <trip id="35" depart="35.00" from="680955161" to="144489137#8"/>
    <trip id="36" depart="36.00" from="446233233" to="-30832489#0"/>
    <trip id="37" depart="37.00" from="254758125#2" to="254759928"/>
    <trip id="38" depart="38.00" from="712555565#0" to="86303763#1"/>
    <trip id="39" depart="39.00" from="86303763#5" to="473325694#0"/>
    <trip id="40" depart="40.00" from="254758125#1" to="473325695"/>
    <trip id="41" depart="41.00" from="686250328" to="254758131#2"/>
    <trip id="42" depart="42.00" from="686250331#0" to="254758125#2"/>
    <trip id="43" depart="43.00" from="30832489#0" to="91181767"/>
    <trip id="44" depart="44.00" from="225847517#0" to="686250332#2"/>
    <trip id="45" depart="45.00" from="91181766#0" to="-397145034"/>
    <trip id="46" depart="46.00" from="254758122#4" to="-254758120#2"/>
    <trip id="47" depart="47.00" from="91181766#1" to="473325695"/>
    <trip id="48" depart="48.00" from="686250331#1" to="-277451471#1"/>
    <trip id="49" depart="49.00" from="513704711" to="397150812"/>
</routes>
