<?xml version="1.0" encoding="UTF-8"?>

<!-- generated on Thu Oct 17 21:22:04 2019 by Eclipse SUMO duarouter Version 1.3.1
<configuration xmlns:xsi="http://www.w3.org/2001/XMLSchema-instance" xsi:noNamespaceSchemaLocation="http://sumo.dlr.de/xsd/duarouterConfiguration.xsd">

    <input>
        <net-file value="scenario_tfl.net.xml"/>
        <route-files value="trips.trips.xml"/>
    </input>

    <output>
        <output-file value="50.rou.xml"/>
        <alternatives-output value="50.rou.alt.xml"/>
    </output>

    <time>
        <begin value="0"/>
        <end value="50.0"/>
    </time>

    <report>
        <no-warnings value="true"/>
        <ignore-errors value="true"/>
        <no-step-log value="true"/>
    </report>

</configuration>
-->

<routes xmlns:xsi="http://www.w3.org/2001/XMLSchema-instance" xsi:noNamespaceSchemaLocation="http://sumo.dlr.de/xsd/routes_file.xsd">

<!-- Emergency Vehicle Route -->
    <vType id="EV" length="8.00" vClass="emergency" guiShape="emergency" color="red"/>
    <trip id="trip_0" type="EV" depart="0.00" from="446233233" to="686250326#6" via="446233235 254759928 473325692 473325694#0 473325694#1 8920975#2 8920975#3 686250330 277480425 417087411#0 144489137#8 254758125#0 254758125#2 277480563 277480424#0 277480424#1 686250326#2 686250326#3 686250326#4 686250326#5"/>


    <vehicle id="0" depart="0.00">
        <route edges="254758120#6 -225847532#1 -225847532#0 -397170089 -446233234#1 -446233234#0 446233235 254759936"/>
    </vehicle>
    <vehicle id="1" depart="1.00">
        <route edges="446233233 -706533480#1"/>
    </vehicle>
    <vehicle id="3" depart="3.00">
        <route edges="397150812 60949899#0 60949899#1 26938124#3 26938124#4 686250326#0 686250326#1 686250326#2 686250326#3 686250326#4 686250326#5 686250326#6 686250326#7"/>
    </vehicle>
    <vehicle id="5" depart="5.00">
        <route edges="397170089 225847513#0 225847513#1 398675749#0 398675749#1 398675749#2 -254758120#4 254758120#4"/>
    </vehicle>
    <vehicle id="6" depart="6.00">
        <route edges="473325694#0 473325694#1 8920975#2 8920975#3 686250330 277480425 254758120#0 254758120#1 254758120#2 254758120#3 254758120#4 398675749#3 398675749#4 144489137#3"/>
    </vehicle>
    <vehicle id="8" depart="8.00">
        <route edges="225847514 -225847514 -30832489#1 -30832489#0 -225847513#1 -225847513#0 225847532#0 -225847532#0"/>
    </vehicle>
    <vehicle id="9" depart="9.00">
        <route edges="277480563 542267688 686250328 686250331#0 686250331#1 686250335 686250332#0 686250332#1 686250332#2 254448252#0 254448252#1 686250339 -446233234#1 -446233234#0 446233235"/>
    </vehicle>
    <vehicle id="10" depart="10.00">
        <route edges="254758131#1 686250326#5 84734271#3 461017935#0 461017935#1 406581245 406581246#0 254758122#3 254758122#4 254758122#5 254758120#3 254758120#4 398675749#3 398675749#4 144489137#3"/>
    </vehicle>
    <vehicle id="11" depart="11.00">
        <route edges="-30832489#1 30832489#1 225847522#0 225847522#1 225847522#2 686250333 473325693#0 473325693#1 408591454 -408591454 -397145034 397145034"/>
    </vehicle>
    <vehicle id="12" depart="12.00">
        <route edges="254758120#3 -254758120#3 254758122#6 225847522#0 225847522#1 225847522#2 686250333 473325693#0"/>
    </vehicle>
    <vehicle id="13" depart="13.00">
        <route edges="619979103#1 415517887#0 415517887#1 415517887#2 111547662#0 111547662#1 -111547662#1 -111547662#0 26938124#0 26938124#1 26938124#2 26938124#3 26938124#4 686250326#0 686250326#1 686250326#2 686250326#3 546048996#0 546048996#1 417087318 277480564#0 277480564#1 254758120#0 254758120#1 254758120#2 254758122#6 225847522#0"/>
    </vehicle>
    <vehicle id="14" depart="14.00">
        <route edges="254758124#0 254758124#1 254758124#2 254758124#3 254758124#4 254758125#0 254758125#1 254758125#2 277480563 542267688 397151342 397150812 254759927#0 254759927#1 254759927#2 254759927#3 111547662#0 111547662#1 111547662#2 -111547662#2"/>
    </vehicle>
    <vehicle id="15" depart="15.00">
        <route edges="403880759#0 403880759#1 35973460#0 35973460#1 417087458 263855294#0 263855294#1 263855294#2 8920975#0 8920975#1 473325694#2 473325695 397150812"/>
    </vehicle>
    <vehicle id="16" depart="16.00">
        <route edges="254758122#1 254758122#2 406581246#1 406581244 91181767 513704711 -297445459#1 -297445459#0 297445459#0"/>
    </vehicle>
    <vehicle id="17" depart="17.00">
        <route edges="-297445459#1 -297445459#0 -515595963 -277451471#2 -277451471#1 -277451471#0 -225847532#1 -225847532#0 -397170089 397170089"/>
    </vehicle>
    <vehicle id="18" depart="18.00">
        <route edges="399138118 686250327#0 686250327#1 686250329#0 686250329#1 397151342 399193687#0 399193687#1 254759942#0 254759942#1 680955161"/>
    </vehicle>
    <vehicle id="19" depart="19.00">
        <route edges="686250331#0 686250331#1 686250335 686250332#0 686250332#1 686250332#2 254448248#0 254448248#1 398675749#0 398675749#1 398675749#2 -254758120#4 -254758120#3"/>
    </vehicle>
    <vehicle id="20" depart="20.00">
        <route edges="-515595963 -277451471#2 -277451471#1 -277451471#0 -254758120#6 -254758120#5"/>
    </vehicle>
    <vehicle id="21" depart="21.00">
        <route edges="225847514 -225847514 225847522#0 225847522#1 225847522#2 686250332#0 686250332#1 686250332#2 254448252#0 254448252#1"/>
    </vehicle>
    <vehicle id="22" depart="22.00">
        <route edges="84734271#2 84734271#3 461017935#0 461017935#1 406581245 406581246#0 254758122#3 254758122#4 254758122#5 254758122#6 -30832489#1"/>
    </vehicle>
    <vehicle id="23" depart="23.00">
        <route edges="397150812 60949899#0 60949899#1 26938124#3 26938124#4 686250326#0 686250326#1 686250326#2 686250326#3 546048996#0 546048996#1 417087318 277480564#0 277480564#1 254758120#0 254758120#1 254758120#2 254758122#6 225847514"/>
    </vehicle>
    <vehicle id="24" depart="24.00">
        <route edges="254758122#4 254758122#5 254758122#6 225847522#0 225847522#1 225847522#2 686250332#0 686250332#1 686250332#2 254448252#0 254448252#1 686250339 -446233234#1 -446233234#0 446233235"/>
    </vehicle>
    <vehicle id="25" depart="25.00">
        <route edges="144489137#6 144489137#7 417087411#1 406581246#0 406581246#1 406581244 91181766#0 91181766#1 86303763#3"/>
    </vehicle>
    <vehicle id="26" depart="26.00">
        <route edges="-446233234#0 446233235 254759936 254448248#0 254448248#1 30832489#0"/>
    </vehicle>
    <vehicle id="27" depart="27.00">
        <route edges="473325695 399193687#0 399193687#1 254759942#0 254759942#1 680955161 417087458 263855294#0 263855294#1 263855294#2 8920975#0 8920975#1 8920975#2 8920975#3 686250331#0 686250331#1 686250335 686250333"/>
    </vehicle>
    <vehicle id="29" depart="29.00">
        <route edges="254758124#1 254758124#2 254758124#3 254758124#4 254758125#0 254758125#1 254758125#2 277480563 542267688 397151342 397150812 254759927#0 254759927#1 254759927#2 254759927#3 111547662#0 111547662#1 111547662#2 111547662#3"/>
    </vehicle>
    <vehicle id="30" depart="30.00">
        <route edges="254448252#0 254448252#1 686250339 -446233234#1 -446233234#0 446233235 254759928 473325692 473325693#0 473325693#1 408591454 -408591454 -397145034 397145034"/>
    </vehicle>
    <vehicle id="31" depart="31.00">
        <route edges="417087318 277480563 277480424#0 277480424#1"/>
    </vehicle>
    <vehicle id="32" depart="32.00">
        <route edges="515595963 -515595963 144489137#2 144489137#3 144489137#4 144489137#5 144489137#6 144489137#7 144489137#8 254758125#0 254758125#1 254758125#2 277480563 542267688 397151342 399193687#0 399193687#1 254759942#0 254759942#1 680955161 417087458 263855294#0 263855294#1 263855294#2 397145034"/>
    </vehicle>
    <vehicle id="34" depart="34.00">
        <route edges="254759936"/>
    </vehicle>
    <vehicle id="35" depart="35.00">
        <route edges="225847522#0 225847522#1 225847522#2 686250332#0 686250332#1 686250332#2 254448248#0 254448248#1 398675749#0 398675749#1 398675749#2 398675749#3 398675749#4 398675749#5 398675749#6 91181766#0 91181766#1 254759937"/>
    </vehicle>
    <vehicle id="36" depart="36.00">
        <route edges="254758120#0 254758120#1 254758120#2 254758122#6 225847514 712555565#0"/>
    </vehicle>
    <vehicle id="37" depart="37.00">
        <route edges="27167270#1 27167270#2 -27167270#2 -27167270#1 -27167270#0 -408591454 -397145034 8920975#0 8920975#1 8920975#2 8920975#3 686250330 -225847514 -30832489#1 30832489#1"/>
    </vehicle>
    <vehicle id="38" depart="38.00">
        <route edges="406581245 406581246#0 254758122#3 254758122#4 144489137#4 144489137#5 144489137#6 144489137#7 144489137#8 254758131#0 254758131#1 686250326#5 84734271#3 461017935#0"/>
    </vehicle>
    <vehicle id="39" depart="39.00">
        <route edges="-446233234#0 446233234#0 446233234#1"/>
    </vehicle>
    <vehicle id="40" depart="40.00">
        <route edges="546048996#0 546048996#1 417087318 277480564#0 277480564#1 254758120#0 254758120#1 254758120#2 254758120#3 254758120#4 254758120#5 254758120#6 -225847532#1 -225847532#0"/>
    </vehicle>
    <vehicle id="41" depart="41.00">
        <route edges="277480563 277480424#0 277480424#1 686250326#2 686250326#3 686250326#4 686250326#5 84734271#3 461017935#0 461017935#1 406581245 406581246#0 406581246#1 406581244 91181766#0 91181766#1 86303763#3"/>
    </vehicle>
    <vehicle id="42" depart="42.00">
        <route edges="91181766#1 86303763#3 86303763#4 254758122#2 254758122#3 254758122#4 254758122#5 254758122#6 225847522#0 225847522#1 225847522#2 686250332#0 686250332#1 686250332#2 254448252#0 254448252#1 686250339 -446233234#1 -446233234#0 446233235 254759936"/>
    </vehicle>
    <vehicle id="43" depart="43.00">
        <route edges="619979105#0 619979105#1 26938124#0 26938124#1 26938124#2 26938124#3 26938124#4 686250326#0 686250326#1 686250326#2 686250326#3 546048996#0 546048996#1 417087318 277480564#0 277480564#1 417087411#0 417087411#1"/>
    </vehicle>
    <vehicle id="44" depart="44.00">
        <route edges="513704174#1 619979103#0 619979103#1 415517887#0 415517887#1 415517887#2 111547662#0 111547662#1 -111547662#1 -111547662#0 26938124#0 26938124#1 26938124#2 26938124#3 26938124#4 686250327#0 686250327#1 686250329#0 686250329#1 686250328 686250330 -225847514 -30832489#1 -30832489#0 -225847513#1 -225847513#0 225847513#0"/>
    </vehicle>
    <vehicle id="45" depart="45.00">
        <route edges="686250326#0 686250326#1 686250326#2 686250326#3 686250326#4 686250326#5 84734271#3 461017935#0 461017935#1 406581245 406581246#0 254758122#3 254758122#4 254758122#5"/>
    </vehicle>
    <vehicle id="46" depart="46.00">
        <route edges="-254758120#3 254758122#6 -30832489#1 -30832489#0 -225847513#1 -225847513#0 -86303758"/>
    </vehicle>
    <vehicle id="47" depart="47.00">
        <route edges="144489137#6 144489137#7 417087411#1 406581246#0 406581246#1 406581244 91181767 513704711 -297445459#1 -297445459#0 -515595963 515595963"/>
    </vehicle>
    <vehicle id="48" depart="48.00">
        <route edges="254758122#0 254758122#1 254758122#2 254758122#3 254758122#4 254758122#5 254758120#3 254758120#4 254758120#5 254758120#6 277451471#0 277451471#1"/>
    </vehicle>
    <vehicle id="49" depart="49.00">
        <route edges="-35973460#1 35973460#1 -680955161 -254759942#1"/>
    </vehicle>
</routes>
