<?xml version="1.0" encoding="UTF-8"?>

<!-- generated on Thu Oct 17 18:01:10 2019 by Eclipse SUMO netedit Version 1.3.1
<configuration xmlns:xsi="http://www.w3.org/2001/XMLSchema-instance" xsi:noNamespaceSchemaLocation="http://sumo.dlr.de/xsd/netconvertConfiguration.xsd">

    <input>
        <sumo-net-file value="scenario_30.net.xml"/>
    </input>

    <output>
        <output-file value="/Users/GAL1LE0/Desktop/scenario_30/scenario_30.net.xml"/>
    </output>

    <processing>
        <geometry.max-grade.fix value="false"/>
        <offset.disable-normalization value="true"/>
        <opposites.guess.fix-lengths value="true"/>
        <lefthand value="false"/>
    </processing>

    <junctions>
        <no-turnarounds value="true"/>
        <junctions.corner-detail value="5"/>
        <junctions.limit-turn-speed value="5.5"/>
        <rectangular-lane-cut value="false"/>
    </junctions>

    <pedestrian>
        <walkingareas value="false"/>
    </pedestrian>

</configuration>
-->

<net version="1.3" junctionCornerDetail="5" limitTurnSpeed="5.50" xmlns:xsi="http://www.w3.org/2001/XMLSchema-instance" xsi:noNamespaceSchemaLocation="http://sumo.dlr.de/xsd/net_file.xsd">

    <location netOffset="-549764.48,-4179619.17" convBoundary="0.00,0.00,3813.25,3736.59" origBoundary="-122.435008,37.762540,-122.391441,37.796002" projParameter="+proj=utm +zone=10 +ellps=WGS84 +datum=WGS84 +units=m +no_defs"/>

    <type id="highway.bridleway" priority="1" numLanes="1" speed="2.78" allow="pedestrian" oneway="1" width="2.00"/>
    <type id="highway.bus_guideway" priority="1" numLanes="1" speed="27.78" allow="bus" oneway="1"/>
    <type id="highway.cycleway" priority="1" numLanes="1" speed="8.33" allow="bicycle" oneway="0" width="1.00"/>
    <type id="highway.footway" priority="1" numLanes="1" speed="2.78" allow="pedestrian" oneway="1" width="2.00"/>
    <type id="highway.ford" priority="1" numLanes="1" speed="2.78" allow="army" oneway="0"/>
    <type id="highway.living_street" priority="2" numLanes="1" speed="2.78" disallow="tram rail_urban rail rail_electric rail_fast ship" oneway="0"/>
    <type id="highway.motorway" priority="14" numLanes="2" speed="39.44" allow="private emergency authority army vip passenger hov taxi bus coach delivery truck trailer motorcycle evehicle custom1 custom2" oneway="1"/>
    <type id="highway.motorway_link" priority="9" numLanes="1" speed="22.22" allow="private emergency authority army vip passenger hov taxi bus coach delivery truck trailer motorcycle evehicle custom1 custom2" oneway="1"/>
    <type id="highway.path" priority="1" numLanes="1" speed="2.78" allow="pedestrian bicycle" oneway="1" width="2.00"/>
    <type id="highway.pedestrian" priority="1" numLanes="1" speed="2.78" allow="pedestrian" oneway="1" width="2.00"/>
    <type id="highway.primary" priority="12" numLanes="2" speed="27.78" disallow="tram rail_urban rail rail_electric rail_fast ship" oneway="0"/>
    <type id="highway.primary_link" priority="7" numLanes="1" speed="22.22" disallow="tram rail_urban rail rail_electric rail_fast ship" oneway="0"/>
    <type id="highway.raceway" priority="15" numLanes="2" speed="83.33" allow="vip" oneway="0"/>
    <type id="highway.residential" priority="3" numLanes="1" speed="13.89" disallow="tram rail_urban rail rail_electric rail_fast ship" oneway="0"/>
    <type id="highway.secondary" priority="11" numLanes="2" speed="27.78" disallow="tram rail_urban rail rail_electric rail_fast ship" oneway="0"/>
    <type id="highway.secondary_link" priority="6" numLanes="1" speed="22.22" disallow="tram rail_urban rail rail_electric rail_fast ship" oneway="0"/>
    <type id="highway.service" priority="1" numLanes="1" speed="5.56" allow="pedestrian delivery bicycle" oneway="0"/>
    <type id="highway.stairs" priority="1" numLanes="1" speed="1.39" allow="pedestrian" oneway="1" width="2.00"/>
    <type id="highway.step" priority="1" numLanes="1" speed="1.39" allow="pedestrian" oneway="1" width="2.00"/>
    <type id="highway.steps" priority="1" numLanes="1" speed="1.39" allow="pedestrian" oneway="1" width="2.00"/>
    <type id="highway.tertiary" priority="10" numLanes="1" speed="22.22" disallow="tram rail_urban rail rail_electric rail_fast ship" oneway="0"/>
    <type id="highway.tertiary_link" priority="5" numLanes="1" speed="22.22" disallow="tram rail_urban rail rail_electric rail_fast ship" oneway="0"/>
    <type id="highway.track" priority="1" numLanes="1" speed="5.56" disallow="tram rail_urban rail rail_electric rail_fast ship" oneway="0"/>
    <type id="highway.trunk" priority="13" numLanes="2" speed="27.78" disallow="pedestrian bicycle tram rail_urban rail rail_electric rail_fast ship" oneway="0"/>
    <type id="highway.trunk_link" priority="8" numLanes="1" speed="22.22" disallow="pedestrian bicycle tram rail_urban rail rail_electric rail_fast ship" oneway="0"/>
    <type id="highway.unclassified" priority="4" numLanes="1" speed="13.89" disallow="tram rail_urban rail rail_electric rail_fast ship" oneway="0"/>
    <type id="highway.unsurfaced" priority="1" numLanes="1" speed="8.33" disallow="tram rail_urban rail rail_electric rail_fast ship" oneway="0"/>
    <type id="railway.highspeed" priority="21" numLanes="1" speed="69.44" allow="rail_fast" oneway="1"/>
    <type id="railway.light_rail" priority="19" numLanes="1" speed="27.78" allow="rail_urban" oneway="1"/>
    <type id="railway.preserved" priority="16" numLanes="1" speed="27.78" allow="rail" oneway="1"/>
    <type id="railway.rail" priority="20" numLanes="1" speed="44.44" allow="rail" oneway="1"/>
    <type id="railway.subway" priority="18" numLanes="1" speed="27.78" allow="rail_urban" oneway="1"/>
    <type id="railway.tram" priority="17" numLanes="1" speed="13.89" allow="tram" oneway="1"/>

    <edge id=":1420265612_0" function="internal">
        <lane id=":1420265612_0_0" index="0" allow="pedestrian delivery bicycle" speed="3.65" length="4.67" shape="1874.72,1990.89 1875.83,1991.81 1876.14,1992.65 1875.66,1993.40 1874.38,1994.07"/>
    </edge>
    <edge id=":1420265629_0" function="internal">
        <lane id=":1420265629_0_0" index="0" disallow="tram rail_urban rail rail_electric rail_fast ship" speed="22.22" length="0.30" shape="1730.85,1942.70 1730.90,1942.41"/>
        <lane id=":1420265629_0_1" index="1" disallow="tram rail_urban rail rail_electric rail_fast ship" speed="22.22" length="0.30" shape="1734.01,1943.23 1734.05,1942.93"/>
        <lane id=":1420265629_0_2" index="2" disallow="tram rail_urban rail rail_electric rail_fast ship" speed="22.22" length="0.30" shape="1737.16,1943.75 1737.21,1943.46"/>
    </edge>
    <edge id=":1420265658_0" function="internal">
        <lane id=":1420265658_0_0" index="0" disallow="tram rail_urban rail rail_electric rail_fast ship" speed="27.78" length="5.44" shape="1871.40,2058.20 1866.06,2057.31"/>
        <lane id=":1420265658_0_1" index="1" disallow="tram rail_urban rail rail_electric rail_fast ship" speed="27.78" length="5.44" shape="1871.92,2055.04 1866.53,2054.15"/>
    </edge>
    <edge id=":1420265658_2" function="internal">
        <lane id=":1420265658_2_0" index="0" allow="pedestrian delivery bicycle" speed="6.67" length="4.33" shape="1871.92,2055.04 1869.75,2054.28 1868.32,2052.84"/>
    </edge>
    <edge id=":1420265658_3" function="internal">
        <lane id=":1420265658_3_0" index="0" disallow="tram rail_urban rail rail_electric rail_fast ship" speed="3.65" length="2.34" shape="1871.92,2055.04 1870.87,2054.05 1870.61,2053.20"/>
    </edge>
    <edge id=":1420265658_10" function="internal">
        <lane id=":1420265658_10_0" index="0" allow="pedestrian delivery bicycle" speed="6.67" length="5.02" shape="1868.32,2052.84 1867.64,2050.72 1867.71,2047.92"/>
    </edge>
    <edge id=":1420265658_11" function="internal">
        <lane id=":1420265658_11_0" index="0" disallow="tram rail_urban rail rail_electric rail_fast ship" speed="3.65" length="2.34" shape="1870.61,2053.20 1871.13,2052.48 1872.45,2051.88"/>
    </edge>
    <edge id=":1420265658_4" function="internal">
        <lane id=":1420265658_4_0" index="0" disallow="tram rail_urban rail rail_electric rail_fast ship" speed="4.78" length="4.31" shape="1870.88,2048.37 1870.81,2049.78 1871.05,2050.84 1871.59,2051.54 1872.45,2051.88"/>
    </edge>
    <edge id=":1420265658_5" function="internal">
        <lane id=":1420265658_5_0" index="0" disallow="tram rail_urban rail rail_electric rail_fast ship" speed="6.15" length="8.08" shape="1870.88,2048.37 1870.27,2051.11 1869.35,2052.99 1868.10,2054.00 1866.53,2054.15"/>
    </edge>
    <edge id=":1420265658_6" function="internal">
        <lane id=":1420265658_6_0" index="0" allow="pedestrian delivery bicycle" speed="3.65" length="4.67" shape="1870.88,2048.37 1869.92,2049.44 1869.07,2049.73 1868.34,2049.22 1867.71,2047.92"/>
    </edge>
    <edge id=":1420265658_7" function="internal">
        <lane id=":1420265658_7_0" index="0" allow="pedestrian delivery bicycle" speed="4.29" length="3.39" shape="1866.96,2050.97 1867.47,2050.70 1867.65,2049.88 1867.67,2048.84 1867.71,2047.92"/>
    </edge>
    <edge id=":1420265658_8" function="internal">
        <lane id=":1420265658_8_0" index="0" disallow="tram rail_urban rail rail_electric rail_fast ship" speed="27.78" length="5.57" shape="1866.96,2050.97 1872.45,2051.88"/>
    </edge>
    <edge id=":1420265658_9" function="internal">
        <lane id=":1420265658_9_0" index="0" disallow="tram rail_urban rail rail_electric rail_fast ship" speed="3.65" length="2.34" shape="1866.96,2050.97 1868.04,2051.93 1868.33,2052.77"/>
    </edge>
    <edge id=":1420265658_12" function="internal">
        <lane id=":1420265658_12_0" index="0" disallow="tram rail_urban rail rail_electric rail_fast ship" speed="3.65" length="2.34" shape="1868.33,2052.77 1867.83,2053.51 1866.53,2054.15"/>
    </edge>
    <edge id=":1420265689_0" function="internal">
        <lane id=":1420265689_0_0" index="0" disallow="tram rail_urban rail rail_electric rail_fast ship" speed="27.78" length="5.09" shape="1961.16,2016.63 1957.61,2020.21"/>
        <lane id=":1420265689_0_1" index="1" disallow="tram rail_urban rail rail_electric rail_fast ship" speed="27.78" length="5.09" shape="1958.92,2014.34 1955.30,2017.99"/>
    </edge>
    <edge id=":1420265689_2" function="internal">
        <lane id=":1420265689_2_0" index="0" disallow="tram rail_urban rail rail_electric rail_fast ship" speed="3.65" length="2.34" shape="1958.92,2014.34 1957.50,2014.61 1956.66,2014.32"/>
    </edge>
    <edge id=":1420265689_5" function="internal">
        <lane id=":1420265689_5_0" index="0" disallow="tram rail_urban rail rail_electric rail_fast ship" speed="3.65" length="2.34" shape="1956.66,2014.32 1956.39,2013.46 1956.68,2012.05"/>
    </edge>
    <edge id=":1420265689_3" function="internal">
        <lane id=":1420265689_3_0" index="0" disallow="tram rail_urban rail rail_electric rail_fast ship" speed="27.78" length="5.24" shape="1953.00,2015.77 1956.68,2012.05"/>
    </edge>
    <edge id=":1420265689_4" function="internal">
        <lane id=":1420265689_4_0" index="0" disallow="tram rail_urban rail rail_electric rail_fast ship" speed="3.65" length="2.34" shape="1953.00,2015.77 1954.41,2015.46 1955.26,2015.73"/>
    </edge>
    <edge id=":1420265689_6" function="internal">
        <lane id=":1420265689_6_0" index="0" disallow="tram rail_urban rail rail_electric rail_fast ship" speed="3.65" length="2.34" shape="1955.26,2015.73 1955.56,2016.57 1955.30,2017.99"/>
    </edge>
    <edge id=":1420265746_0" function="internal">
        <lane id=":1420265746_0_0" index="0" disallow="tram rail_urban rail rail_electric rail_fast ship" speed="22.22" length="0.30" shape="1736.62,1907.93 1736.66,1907.65"/>
        <lane id=":1420265746_0_1" index="1" disallow="tram rail_urban rail rail_electric rail_fast ship" speed="22.22" length="0.30" shape="1739.78,1908.46 1739.82,1908.16"/>
        <lane id=":1420265746_0_2" index="2" disallow="tram rail_urban rail rail_electric rail_fast ship" speed="22.22" length="0.30" shape="1742.93,1908.98 1742.98,1908.67"/>
    </edge>
    <edge id=":1563088512_0" function="internal">
        <lane id=":1563088512_0_0" index="0" allow="tram" speed="13.89" length="17.45" shape="170.64,191.63 168.66,188.02 166.90,183.78 165.49,179.40 164.55,175.37"/>
    </edge>
    <edge id=":1563088512_1" function="internal">
        <lane id=":1563088512_1_0" index="0" allow="tram" speed="13.89" length="17.66" shape="161.05,177.23 173.54,189.72"/>
    </edge>
    <edge id=":1580501206_0" function="internal">
        <lane id=":1580501206_0_0" index="0" disallow="tram rail_urban rail rail_electric rail_fast ship" speed="6.50" length="9.03" shape="2072.01,2610.70 2071.95,2613.18 2072.70,2615.08 2074.26,2616.40 2076.62,2617.14"/>
    </edge>
    <edge id=":1580501206_1" function="internal">
        <lane id=":1580501206_1_0" index="0" disallow="tram rail_urban rail rail_electric rail_fast ship" speed="27.78" length="14.42" shape="2072.01,2610.70 2069.64,2624.93"/>
        <lane id=":1580501206_1_1" index="1" disallow="tram rail_urban rail rail_electric rail_fast ship" speed="27.78" length="14.42" shape="2068.85,2610.18 2066.49,2624.40"/>
        <lane id=":1580501206_1_2" index="2" disallow="tram rail_urban rail rail_electric rail_fast ship" speed="27.78" length="14.42" shape="2065.70,2609.65 2063.33,2623.88"/>
    </edge>
    <edge id=":1580501206_4" function="internal">
        <lane id=":1580501206_4_0" index="0" disallow="tram rail_urban rail rail_electric rail_fast ship" speed="27.78" length="17.61" shape="2059.24,2614.28 2076.62,2617.14"/>
        <lane id=":1580501206_4_1" index="1" disallow="tram rail_urban rail rail_electric rail_fast ship" speed="27.78" length="17.61" shape="2058.72,2617.44 2076.10,2620.30"/>
    </edge>
    <edge id=":1580501206_6" function="internal">
        <lane id=":1580501206_6_0" index="0" disallow="tram rail_urban rail rail_electric rail_fast ship" speed="7.32" length="11.73" shape="2058.72,2617.44 2062.46,2618.41 2065.01,2619.89 2066.35,2621.89 2066.49,2624.40"/>
    </edge>
    <edge id=":1580501206_7" function="internal">
        <lane id=":1580501206_7_0" index="0" disallow="tram rail_urban rail rail_electric rail_fast ship" speed="6.50" length="9.03" shape="2058.72,2617.44 2061.08,2618.18 2062.64,2619.50 2063.39,2621.40 2063.33,2623.88"/>
    </edge>
    <edge id=":1580501216_0" function="internal">
        <lane id=":1580501216_0_0" index="0" disallow="tram rail_urban rail rail_electric rail_fast ship" speed="6.51" length="9.04" shape="1914.61,2590.46 1917.09,2590.51 1918.99,2589.76 1920.31,2588.21 1921.06,2585.84"/>
    </edge>
    <edge id=":1580501216_1" function="internal">
        <lane id=":1580501216_1_0" index="0" disallow="tram rail_urban rail rail_electric rail_fast ship" speed="27.78" length="17.60" shape="1914.61,2590.46 1931.98,2593.33"/>
        <lane id=":1580501216_1_1" index="1" disallow="tram rail_urban rail rail_electric rail_fast ship" speed="27.78" length="17.60" shape="1914.09,2593.61 1931.46,2596.49"/>
    </edge>
    <edge id=":1580501216_3" function="internal">
        <lane id=":1580501216_3_0" index="0" disallow="tram rail_urban rail rail_electric rail_fast ship" speed="27.78" length="14.41" shape="1918.69,2600.06 1921.06,2585.84"/>
        <lane id=":1580501216_3_1" index="1" disallow="tram rail_urban rail rail_electric rail_fast ship" speed="27.78" length="14.41" shape="1921.85,2600.58 1924.22,2586.37"/>
        <lane id=":1580501216_3_2" index="2" disallow="tram rail_urban rail rail_electric rail_fast ship" speed="27.78" length="14.41" shape="1925.01,2601.10 1927.37,2586.90"/>
    </edge>
    <edge id=":1580501216_6" function="internal">
        <lane id=":1580501216_6_0" index="0" disallow="tram rail_urban rail rail_electric rail_fast ship" speed="6.52" length="9.04" shape="1925.01,2601.10 1925.75,2598.74 1927.08,2597.19 1928.98,2596.44 1931.46,2596.49"/>
    </edge>
    <edge id=":1626468366_0" function="internal">
        <lane id=":1626468366_0_0" index="0" disallow="tram rail_urban rail rail_electric rail_fast ship" speed="27.78" length="0.10" shape="1896.94,2730.82 1896.94,2730.81"/>
        <lane id=":1626468366_0_1" index="1" disallow="tram rail_urban rail rail_electric rail_fast ship" speed="27.78" length="0.10" shape="1900.10,2731.34 1900.10,2731.34"/>
        <lane id=":1626468366_0_2" index="2" disallow="tram rail_urban rail rail_electric rail_fast ship" speed="27.78" length="0.10" shape="1903.26,2731.86 1903.26,2731.87"/>
    </edge>
    <edge id=":1723738829_0" function="internal">
        <lane id=":1723738829_0_0" index="0" disallow="tram rail_urban rail rail_electric rail_fast ship" speed="25.00" length="0.60" shape="2159.11,2198.68 2159.02,2198.54 2158.91,2198.47 2158.78,2198.47 2158.63,2198.55"/>
    </edge>
    <edge id=":1723738829_1" function="internal">
        <lane id=":1723738829_1_0" index="0" disallow="tram rail_urban rail rail_electric rail_fast ship" speed="8.18" length="6.41" shape="2159.11,2198.68 2158.29,2197.16 2157.29,2195.91 2156.09,2194.96 2154.69,2194.29"/>
    </edge>
    <edge id=":1723738829_2" function="internal">
        <lane id=":1723738829_2_0" index="0" allow="pedestrian delivery bicycle" speed="13.89" length="7.53" shape="2159.11,2198.68 2158.02,2196.83 2156.84,2195.87 2155.45,2195.05 2153.72,2193.63"/>
    </edge>
    <edge id=":1723738829_3" function="internal">
        <lane id=":1723738829_3_0" index="0" disallow="tram rail_urban rail rail_electric rail_fast ship" speed="4.82" length="8.60" shape="2159.11,2198.68 2158.08,2195.82 2158.15,2194.59 2159.33,2195.00 2161.62,2197.06"/>
    </edge>
    <edge id=":1723738829_4" function="internal">
        <lane id=":1723738829_4_0" index="0" disallow="tram rail_urban rail rail_electric rail_fast ship" speed="5.02" length="4.24" shape="2159.35,2199.31 2156.81,2195.92"/>
    </edge>
    <edge id=":1723738829_5" function="internal">
        <lane id=":1723738829_5_0" index="0" disallow="tram rail_urban rail rail_electric rail_fast ship" speed="14.35" length="7.01" shape="2159.35,2199.31 2158.06,2197.66 2157.33,2196.32 2156.44,2195.21 2154.69,2194.29"/>
    </edge>
    <edge id=":1723738829_6" function="internal">
        <lane id=":1723738829_6_0" index="0" allow="pedestrian delivery bicycle" speed="13.89" length="8.00" shape="2159.35,2199.31 2153.72,2193.63"/>
    </edge>
    <edge id=":1723738829_7" function="internal">
        <lane id=":1723738829_7_0" index="0" disallow="tram rail_urban rail rail_electric rail_fast ship" speed="3.65" length="2.34" shape="2159.35,2199.31 2159.07,2197.89 2159.36,2197.05"/>
    </edge>
    <edge id=":1723738829_21" function="internal">
        <lane id=":1723738829_21_0" index="0" disallow="tram rail_urban rail rail_electric rail_fast ship" speed="3.65" length="2.34" shape="2159.36,2197.05 2160.21,2196.77 2161.62,2197.06"/>
    </edge>
    <edge id=":1723738829_8" function="internal">
        <lane id=":1723738829_8_0" index="0" disallow="tram rail_urban rail rail_electric rail_fast ship" speed="19.48" length="5.36" shape="2162.84,2201.64 2158.63,2198.55"/>
        <lane id=":1723738829_8_1" index="1" disallow="tram rail_urban rail rail_electric rail_fast ship" speed="19.48" length="5.36" shape="2161.32,2198.82 2156.81,2195.92"/>
        <lane id=":1723738829_8_2" index="2" disallow="tram rail_urban rail rail_electric rail_fast ship" speed="19.48" length="5.36" shape="2159.79,2196.01 2155.03,2193.26"/>
    </edge>
    <edge id=":1723738829_11" function="internal">
        <lane id=":1723738829_11_0" index="0" allow="pedestrian delivery bicycle" speed="6.38" length="0.97" shape="2159.79,2196.01 2158.82,2196.10"/>
    </edge>
    <edge id=":1723738829_22" function="internal">
        <lane id=":1723738829_22_0" index="0" allow="pedestrian delivery bicycle" speed="6.38" length="5.78" shape="2158.82,2196.10 2158.55,2196.13 2156.88,2195.64 2155.14,2194.74 2153.72,2193.63"/>
    </edge>
    <edge id=":1723738829_12" function="internal">
        <lane id=":1723738829_12_0" index="0" disallow="tram rail_urban rail rail_electric rail_fast ship" speed="3.63" length="2.49" shape="2157.03,2192.85 2156.75,2190.38"/>
    </edge>
    <edge id=":1723738829_13" function="internal">
        <lane id=":1723738829_13_0" index="0" disallow="tram rail_urban rail rail_electric rail_fast ship" speed="4.59" length="3.11" shape="2155.99,2191.37 2156.52,2192.02 2157.06,2192.73 2157.64,2193.21 2158.27,2193.20"/>
    </edge>
    <edge id=":1723738829_14" function="internal">
        <lane id=":1723738829_14_0" index="0" disallow="tram rail_urban rail rail_electric rail_fast ship" speed="13.89" length="8.00" shape="2155.99,2191.37 2161.62,2197.06"/>
    </edge>
    <edge id=":1723738829_15" function="internal">
        <lane id=":1723738829_15_0" index="0" disallow="tram rail_urban rail rail_electric rail_fast ship" speed="3.65" length="1.85" shape="2155.99,2191.37 2156.21,2191.77 2156.12,2192.22 2155.72,2192.71 2155.48,2192.90"/>
    </edge>
    <edge id=":1723738829_16" function="internal">
        <lane id=":1723738829_16_0" index="0" disallow="tram rail_urban rail rail_electric rail_fast ship" speed="3.58" length="1.94" shape="2155.99,2191.37 2156.24,2192.20 2156.00,2193.25"/>
    </edge>
    <edge id=":1723738829_17" function="internal">
        <lane id=":1723738829_17_0" index="0" allow="pedestrian delivery bicycle" speed="3.65" length="2.34" shape="2155.99,2191.37 2156.27,2192.79 2155.98,2193.64"/>
    </edge>
    <edge id=":1723738829_23" function="internal">
        <lane id=":1723738829_23_0" index="0" disallow="tram rail_urban rail rail_electric rail_fast ship" speed="3.65" length="0.58" shape="2155.48,2192.90 2155.03,2193.26"/>
    </edge>
    <edge id=":1723738829_24" function="internal">
        <lane id=":1723738829_24_0" index="0" disallow="tram rail_urban rail rail_electric rail_fast ship" speed="3.58" length="1.78" shape="2156.00,2193.25 2155.43,2194.09 2154.69,2194.29"/>
    </edge>
    <edge id=":1723738829_25" function="internal">
        <lane id=":1723738829_25_0" index="0" allow="pedestrian delivery bicycle" speed="3.65" length="2.34" shape="2155.98,2193.64 2155.13,2193.92 2153.72,2193.63"/>
    </edge>
    <edge id=":1723738829_18" function="internal">
        <lane id=":1723738829_18_0" index="0" allow="pedestrian delivery bicycle" speed="3.33" length="2.27" shape="2155.94,2194.09 2153.72,2193.63"/>
    </edge>
    <edge id=":1723738829_19" function="internal">
        <lane id=":1723738829_19_0" index="0" disallow="tram rail_urban rail rail_electric rail_fast ship" speed="11.18" length="4.06" shape="2155.94,2194.09 2156.75,2190.38"/>
        <lane id=":1723738829_19_1" index="1" disallow="tram rail_urban rail rail_electric rail_fast ship" speed="11.18" length="4.06" shape="2156.65,2197.21 2158.27,2193.20"/>
    </edge>
    <edge id=":1723738966_0" function="internal">
        <lane id=":1723738966_0_0" index="0" allow="pedestrian delivery bicycle" speed="3.65" length="4.67" shape="1966.44,2004.66 1966.17,2003.24 1966.45,2002.39 1967.30,2002.11 1968.72,2002.40"/>
    </edge>
    <edge id=":258758552_0" function="internal">
        <lane id=":258758552_0_0" index="0" disallow="tram rail_urban rail rail_electric rail_fast ship" speed="3.65" length="4.67" shape="1240.80,2268.89 1239.74,2267.90 1239.48,2267.05 1240.01,2266.32 1241.32,2265.73"/>
    </edge>
    <edge id=":2884715031_0" function="internal">
        <lane id=":2884715031_0_0" index="0" disallow="tram rail_urban rail rail_electric rail_fast ship" speed="27.78" length="4.04" shape="1875.58,2058.89 1871.60,2058.23"/>
        <lane id=":2884715031_0_1" index="1" disallow="tram rail_urban rail rail_electric rail_fast ship" speed="27.78" length="4.04" shape="1876.10,2055.73 1872.12,2055.07"/>
    </edge>
    <edge id=":2884715031_2" function="internal">
        <lane id=":2884715031_2_0" index="0" disallow="tram rail_urban rail rail_electric rail_fast ship" speed="3.65" length="2.34" shape="1876.10,2055.73 1875.05,2054.75 1874.78,2053.89"/>
    </edge>
    <edge id=":2884715031_5" function="internal">
        <lane id=":2884715031_5_0" index="0" disallow="tram rail_urban rail rail_electric rail_fast ship" speed="3.65" length="2.34" shape="1874.78,2053.89 1875.31,2053.17 1876.62,2052.57"/>
    </edge>
    <edge id=":2884715031_3" function="internal">
        <lane id=":2884715031_3_0" index="0" disallow="tram rail_urban rail rail_electric rail_fast ship" speed="27.78" length="4.03" shape="1872.65,2051.92 1876.62,2052.57"/>
    </edge>
    <edge id=":2884715031_4" function="internal">
        <lane id=":2884715031_4_0" index="0" disallow="tram rail_urban rail rail_electric rail_fast ship" speed="3.65" length="2.34" shape="1872.65,2051.92 1873.70,2052.90 1873.96,2053.76"/>
    </edge>
    <edge id=":2884715031_6" function="internal">
        <lane id=":2884715031_6_0" index="0" disallow="tram rail_urban rail rail_electric rail_fast ship" speed="3.65" length="2.34" shape="1873.96,2053.76 1873.44,2054.48 1872.12,2055.07"/>
    </edge>
    <edge id=":2908408449_0" function="internal">
        <lane id=":2908408449_0_0" index="0" disallow="tram rail_urban rail rail_electric rail_fast ship" speed="22.22" length="5.71" shape="1587.37,2011.17 1585.64,2010.87 1584.47,2010.64 1583.31,2010.34 1581.62,2009.87"/>
        <lane id=":2908408449_0_1" index="1" disallow="tram rail_urban rail rail_electric rail_fast ship" speed="22.22" length="5.71" shape="1587.89,2008.01 1586.27,2007.73 1585.17,2007.51 1584.08,2007.24 1582.50,2006.79"/>
    </edge>
    <edge id=":2908408449_2" function="internal">
        <lane id=":2908408449_2_0" index="0" disallow="tram rail_urban rail rail_electric rail_fast ship" speed="3.65" length="2.34" shape="1587.89,2008.01 1586.84,2007.02 1586.58,2006.17"/>
    </edge>
    <edge id=":2908408449_5" function="internal">
        <lane id=":2908408449_5_0" index="0" disallow="tram rail_urban rail rail_electric rail_fast ship" speed="3.65" length="2.34" shape="1586.58,2006.17 1587.10,2005.44 1588.42,2004.85"/>
    </edge>
    <edge id=":2908408449_3" function="internal">
        <lane id=":2908408449_3_0" index="0" disallow="tram rail_urban rail rail_electric rail_fast ship" speed="22.22" length="5.18" shape="1583.37,2003.71 1584.85,2004.13 1585.87,2004.39 1586.90,2004.59 1588.42,2004.85"/>
    </edge>
    <edge id=":2908408449_4" function="internal">
        <lane id=":2908408449_4_0" index="0" disallow="tram rail_urban rail rail_electric rail_fast ship" speed="3.65" length="2.34" shape="1583.37,2003.71 1584.31,2004.81 1584.47,2005.69"/>
    </edge>
    <edge id=":2908408449_6" function="internal">
        <lane id=":2908408449_6_0" index="0" disallow="tram rail_urban rail rail_electric rail_fast ship" speed="3.65" length="2.34" shape="1584.47,2005.69 1583.87,2006.35 1582.50,2006.79"/>
    </edge>
    <edge id=":3013377978_0" function="internal">
        <lane id=":3013377978_0_0" index="0" disallow="tram rail_urban rail rail_electric rail_fast ship" speed="11.18" length="0.30" shape="1337.39,2548.85 1337.34,2549.15"/>
    </edge>
    <edge id=":3013377978_1" function="internal">
        <lane id=":3013377978_1_0" index="0" disallow="tram rail_urban rail rail_electric rail_fast ship" speed="3.65" length="2.34" shape="1337.39,2548.85 1336.41,2549.91 1335.55,2550.17"/>
    </edge>
    <edge id=":3013377978_4" function="internal">
        <lane id=":3013377978_4_0" index="0" disallow="tram rail_urban rail rail_electric rail_fast ship" speed="3.65" length="2.34" shape="1335.55,2550.17 1334.83,2549.64 1334.24,2548.33"/>
    </edge>
    <edge id=":3013377978_2" function="internal">
        <lane id=":3013377978_2_0" index="0" disallow="tram rail_urban rail rail_electric rail_fast ship" speed="11.18" length="0.30" shape="1334.19,2548.63 1334.24,2548.33"/>
    </edge>
    <edge id=":3013377978_3" function="internal">
        <lane id=":3013377978_3_0" index="0" disallow="tram rail_urban rail rail_electric rail_fast ship" speed="3.65" length="2.34" shape="1334.19,2548.63 1335.17,2547.57 1336.03,2547.31"/>
    </edge>
    <edge id=":3013377978_5" function="internal">
        <lane id=":3013377978_5_0" index="0" disallow="tram rail_urban rail rail_electric rail_fast ship" speed="3.65" length="2.34" shape="1336.03,2547.31 1336.75,2547.83 1337.34,2549.15"/>
    </edge>
    <edge id=":3814451006_0" function="internal">
        <lane id=":3814451006_0_0" index="0" disallow="tram rail_urban rail rail_electric rail_fast ship" speed="10.02" length="12.14" shape="2141.95,2209.36 2140.11,2210.83 2138.64,2212.85 2137.53,2215.42 2136.80,2218.56"/>
        <lane id=":3814451006_0_1" index="1" disallow="tram rail_urban rail rail_electric rail_fast ship" speed="10.56" length="12.14" shape="2138.84,2207.47 2137.06,2208.98 2135.61,2211.25 2134.47,2214.27 2133.64,2218.06"/>
        <lane id=":3814451006_0_2" index="2" disallow="tram rail_urban rail rail_electric rail_fast ship" speed="14.33" length="12.14" shape="2136.00,2205.75 2133.34,2208.63 2131.90,2210.96 2131.13,2213.64 2130.48,2217.55"/>
    </edge>
    <edge id=":3814451006_3" function="internal">
        <lane id=":3814451006_3_0" index="0" disallow="tram rail_urban rail rail_electric rail_fast ship" speed="9.08" length="11.16" shape="2129.01,2207.72 2131.41,2209.89 2132.98,2212.33 2133.73,2215.06 2133.64,2218.06"/>
        <lane id=":3814451006_3_1" index="1" disallow="tram rail_urban rail rail_electric rail_fast ship" speed="8.47" length="11.16" shape="2129.01,2207.72 2130.12,2209.07 2130.74,2211.16 2130.86,2213.99 2130.48,2217.55"/>
    </edge>
    <edge id=":3931486692_0" function="internal">
        <lane id=":3931486692_0_0" index="0" disallow="tram rail_urban rail rail_electric rail_fast ship" speed="22.22" length="0.30" shape="1714.06,2043.79 1714.11,2043.49"/>