<?xml version="1.0" encoding="UTF-8"?>

<!-- generated on Thu Oct 17 21:20:01 2019 by Eclipse SUMO polyconvert Version 1.3.1
<configuration xmlns:xsi="http://www.w3.org/2001/XMLSchema-instance" xsi:noNamespaceSchemaLocation="http://sumo.dlr.de/xsd/polyconvertConfiguration.xsd">

    <input>
        <net-file value="scenario_tfl.net.xml"/>
        <osm-files value="map.osm"/>
        <type-file value="typemap.xml"/>
    </input>

    <output>
        <output-file value="scenario_tfl.poly.xml"/>
    </output>

    <processing>
        <poi-layer-offset value="5"/>
    </processing>

</configuration>
-->

<additional xmlns:xsi="http://www.w3.org/2001/XMLSchema-instance" xsi:noNamespaceSchemaLocation="http://sumo.dlr.de/xsd/additional_file.xsd">
    <location netOffset="-549764.48,-4179619.17" convBoundary="-0.00,0.00,3813.25,4137.00" origBoundary="-122.435008,37.762540,-122.391441,37.799765" projParameter="+proj=utm +zone=10 +ellps=WGS84 +datum=WGS84 +units=m +no_defs"/>

    <poly id="108389188" type="amenity" color="237,199,199" fill="1" layer="2.00" shape="1336.640743,1975.004285 1414.736123,1987.605385 1418.342370,1992.554140 1413.077542,2024.930982 1330.680541,2011.637479 1336.640743,1975.004285"/>
    <poly id="108389188#1" type="building" color="255,230,230" fill="1" layer="2.00" shape="1336.640743,1975.004285 1414.736123,1987.605385 1418.342370,1992.554140 1413.077542,2024.930982 1330.680541,2011.637479 1336.640743,1975.004285"/>
    <poly id="109147678" type="unknown" color="51,128,255" fill="0" layer="-1.00" shape="2030.680841,2504.861871 2031.050798,2495.044780 2030.950100,2478.855977 2030.478688,2465.605119 2020.492443,2464.277434 2020.301213,2447.078382 2016.062134,2446.230664 2015.536100,2424.857642"/>
    <poly id="111547662" type="unknown" color="51,128,255" fill="0" layer="-1.00" shape="2157.674415,2195.345890 2159.353315,2194.435559 2172.062161,2188.590768 2215.424517,2146.568757 2254.831405,2107.639785"/>
    <poly id="127740037" type="building" color="255,230,230" fill="1" layer="2.00" shape="1932.337746,2144.431675 1930.789915,2152.521585 1929.697698,2158.173373 1943.693288,2160.557986 1951.306086,2119.208930 1920.157923,2113.709785 1919.381750,2116.711762 1936.647540,2120.015612 1935.598231,2125.845194 1943.135974,2127.301633 1946.614147,2131.550813 1945.429331,2137.923217 1941.431897,2140.638675 1933.225342,2139.111465 1932.337746,2144.431675"/>
    <poly id="127740039" type="amenity" color="237,199,199" fill="1" layer="2.00" shape="1919.381750,2116.711762 1902.017899,2113.595954 1901.231291,2118.262173 1898.165202,2138.159141 1907.893428,2139.973248 1907.281370,2143.486643 1906.607882,2144.159235 1906.349833,2145.988353 1923.713614,2149.104171 1924.114162,2147.020754 1923.758834,2146.108702 1924.508658,2143.095466 1932.337746,2144.431675 1933.225342,2139.111465 1941.431897,2140.638675 1945.429331,2137.923217 1946.614147,2131.550813 1943.135974,2127.301633 1935.598231,2125.845194 1936.647540,2120.015612 1919.381750,2116.711762"/>
    <poly id="127740039#1" type="building" color="255,230,230" fill="1" layer="2.00" shape="1919.381750,2116.711762 1902.017899,2113.595954 1901.231291,2118.262173 1898.165202,2138.159141 1907.893428,2139.973248 1907.281370,2143.486643 1906.607882,2144.159235 1906.349833,2145.988353 1923.713614,2149.104171 1924.114162,2147.020754 1923.758834,2146.108702 1924.508658,2143.095466 1932.337746,2144.431675 1933.225342,2139.111465 1941.431897,2140.638675 1945.429331,2137.923217 1946.614147,2131.550813 1943.135974,2127.301633 1935.598231,2125.845194 1936.647540,2120.015612 1919.381750,2116.711762"/>
    <poly id="128534059" type="unknown" color="51,128,255" fill="0" layer="-1.00" shape="1879.780033,1986.170302 1871.265630,2036.523204 1874.126084,2043.797516 1874.520959,2053.852403"/>
    <poly id="128534060" type="unknown" color="51,128,255" fill="0" layer="-1.00" shape="1868.626919,2052.872339 1870.027816,2042.928570 1870.516234,2039.469875 1869.325951,2034.081155 1867.448886,2031.484163 1857.304488,2030.011454 1855.208826,2025.759885 1853.814646,2021.989813 1858.689444,1997.322065 1861.550003,1993.345662 1865.339587,1991.483205 1874.544715,1992.484027"/>
    <poly id="128534069" type="unknown" color="51,128,255" fill="0" layer="-1.00" shape="1583.586417,2016.150784 1573.477088,2013.280628 1564.624813,2012.182483 1563.407835,1998.327878 1561.869640,1982.318770"/>
    <poly id="128534082" type="landuse" color="194,194,130" fill="1" layer="-4.00" shape="1868.655453,2027.253294 1873.507163,1997.847683 1863.895255,1995.712584 1860.805769,1998.278438 1857.122783,2021.067443 1858.039911,2025.078622 1868.655453,2027.253294"/>
    <poly id="136100936" type="building" color="255,230,230" fill="1" layer="2.00" shape="2118.853376,2128.850667 2124.357983,2134.322088 2143.889581,2114.839638 2159.628299,2099.150130 2154.132497,2093.678741 2118.853376,2128.850667"/>
    <poly id="136100937" type="building" color="255,230,230" fill="1" layer="2.00" shape="2124.357983,2134.322088 2128.977460,2139.111117 2148.606482,2119.540529 2143.889581,2114.839638 2124.357983,2134.322088"/>
    <poly id="136100939" type="building" color="255,230,230" fill="1" layer="2.00" shape="2140.634212,2150.701591 2152.351522,2162.458894 2171.643056,2143.341144 2164.843622,2136.530079 2159.855579,2131.538989 2140.634212,2150.701591"/>
    <poly id="136100940" type="building" color="255,230,230" fill="1" layer="2.00" shape="2128.977460,2139.111117 2140.634212,2150.701591 2159.855579,2131.538989 2176.010830,2115.430514 2159.628299,2099.150130 2143.889581,2114.839638 2148.606482,2119.540529 2128.977460,2139.111117"/>
    <poly id="136100941" type="building" color="255,230,230" fill="1" layer="2.00" shape="2152.351522,2162.458894 2157.567032,2167.684418 2176.858637,2148.555584 2171.643056,2143.341144 2152.351522,2162.458894"/>
    <poly id="144489137" type="unknown" color="51,128,255" fill="0" layer="-1.00" shape="1206.607180,2474.277612 1216.116453,2475.856549 1344.372255,2497.200272 1489.147596,2521.278422 1633.702135,2545.335563 1665.563314,2550.638389 1686.824601,2554.177501 1744.037423,2563.688903 1778.528627,2569.430246 1923.028795,2593.481060"/>
    <poly id="147808248" type="building" color="255,230,230" fill="1" layer="2.00" shape="1920.557629,2553.688586 1922.865034,2539.611930 1900.987493,2536.057246 1900.822591,2537.076986 1898.634357,2550.411005 1902.434517,2551.034001 1903.710112,2551.230627 1904.140674,2548.570436 1908.741427,2549.309412 1908.347756,2551.703545 1910.599772,2552.061635 1920.557629,2553.688586"/>
    <poly id="147808248#1" type="tourism" color="207,245,201" fill="1" layer="2.00" shape="1920.557629,2553.688586 1922.865034,2539.611930 1900.987493,2536.057246 1900.822591,2537.076986 1898.634357,2550.411005 1902.434517,2551.034001 1903.710112,2551.230627 1904.140674,2548.570436 1908.741427,2549.309412 1908.347756,2551.703545 1910.599772,2552.061635 1920.557629,2553.688586"/>
    <poly id="147808250" type="building" color="255,230,230" fill="1" layer="2.00" shape="1846.389219,2570.210384 1874.186912,2574.722969 1876.155561,2562.696823 1869.813161,2561.658462 1871.919036,2548.812117 1877.830400,2549.781203 1879.890315,2537.245243 1852.673167,2532.813948 1852.206217,2535.662535 1850.667864,2545.072872 1857.326994,2546.157585 1855.175097,2559.325411 1848.357620,2558.217516 1846.389219,2570.210384"/>
    <poly id="147808252" type="building" color="255,230,230" fill="1" layer="2.00" shape="1921.428623,2660.420582 1935.010277,2662.680549 1935.376142,2660.508150 1946.837888,2662.410868 1946.453713,2664.694105 1950.025020,2665.293496 1951.040662,2659.208507 1957.937011,2660.361365 1959.208685,2652.769013 1955.127156,2652.088745 1954.761216,2654.272238 1936.121613,2651.170514 1936.487409,2649.009210 1923.697370,2646.887356 1921.428623,2660.420582"/>
    <poly id="147808255" type="building" color="255,230,230" fill="1" layer="2.00" shape="1906.621147,2567.248441 1903.120098,2566.671701 1901.078461,2579.096818 1915.997691,2581.520479 1920.557629,2553.688586 1910.599772,2552.061635 1910.343404,2553.624476 1902.224057,2552.297554 1902.434517,2551.034001 1898.634357,2550.411005 1897.627061,2556.573719 1904.567669,2557.704618 1903.798777,2562.359855 1907.326314,2562.925666 1906.621147,2567.248441"/>
    <poly id="147808257" type="building" color="255,230,230" fill="1" layer="2.00" shape="1907.687637,2621.811149 1908.822177,2615.016797 1897.993642,2613.229061 1885.880712,2611.244659 1884.754996,2618.039070 1907.687637,2621.811149"/>
    <poly id="147808259" type="building" color="255,230,230" fill="1" layer="2.00" shape="1920.175222,2667.913196 1921.428623,2660.420582 1935.010277,2662.680549 1933.756934,2670.162066 1929.956901,2669.527960 1920.175222,2667.913196"/>
    <poly id="147808261" type="building" color="255,230,230" fill="1" layer="2.00" shape="1887.751457,2576.927270 1901.078461,2579.096818 1903.120098,2566.671701 1903.440539,2564.720924 1896.473520,2563.589860 1890.113513,2562.551373 1887.751457,2576.927270"/>
    <poly id="147808263" type="building" color="255,230,230" fill="1" layer="2.00" shape="1896.473520,2563.589860 1897.627061,2556.573719 1898.634357,2550.411005 1900.822591,2537.076986 1894.453758,2536.038441 1890.360723,2561.043952 1890.113513,2562.551373 1896.473520,2563.589860"/>
    <poly id="147808265" type="building" color="255,230,230" fill="1" layer="2.00" shape="1923.697370,2646.887356 1936.487409,2649.009210 1955.127156,2652.088745 1959.208685,2652.769013 1960.599152,2644.489493 1955.409270,2643.624736 1938.080165,2640.764243 1925.078996,2638.607775 1923.697370,2646.887356"/>
    <poly id="147808267" type="building" color="255,230,230" fill="1" layer="2.00" shape="1874.186912,2574.722969 1887.751457,2576.927270 1890.113513,2562.551373 1890.360723,2561.043952 1882.434890,2559.751549 1882.608873,2558.687484 1876.961399,2557.764430 1876.155561,2562.696823 1874.186912,2574.722969"/>
    <poly id="148162195" type="building" color="255,230,230" fill="1" layer="2.00" shape="1730.777395,2590.223784 1737.893547,2591.444403 1741.027526,2573.278675 1733.902554,2572.057998 1730.923762,2589.348164 1730.777395,2590.223784"/>
    <poly id="148216004" type="building" color="255,230,230" fill="1" layer="2.00" shape="1712.204013,2530.015056 1713.778652,2530.268999 1722.039211,2531.552236 1724.928081,2513.151968 1742.161773,2515.833883 1743.087834,2509.970219 1716.010029,2505.762158 1715.854093,2506.759767 1714.423430,2515.871225 1712.204013,2530.015056"/>
    <poly id="149699807" type="building" color="255,230,230" fill="1" layer="2.00" shape="1907.114068,2755.296165 1915.232656,2756.711854 1921.451279,2757.804952 1932.393319,2759.715485 1933.553025,2753.121010 1908.273754,2748.701686 1907.114068,2755.296165"/>
    <poly id="149699808" type="unknown" color="51,128,255" fill="0" layer="-1.00" shape="1900.096710,2731.341564 1929.345151,2736.107548"/>
    <poly id="149701450" type="building" color="255,230,230" fill="1" layer="2.00" shape="1853.663436,2740.048681 1846.300814,2738.837509 1848.588559,2725.060284 1849.952001,2716.858244 1853.072472,2698.071126 1860.487891,2699.293730 1858.914055,2708.748227 1857.691315,2708.551939 1854.076855,2730.287332 1856.117569,2730.632988 1855.193257,2736.208173 1854.322449,2736.058473 1853.663436,2740.048681"/>
    <poly id="149701451" type="building" color="255,230,230" fill="1" layer="2.00" shape="1826.295564,2741.508167 1845.331023,2744.645413 1845.998837,2740.655260 1846.300814,2738.837509 1848.588559,2725.060284 1839.290731,2723.526316 1837.434645,2723.226203 1832.253606,2722.361579 1831.073447,2729.421944 1829.956302,2729.237417 1829.471064,2732.196845 1827.878857,2731.942769 1827.704885,2733.006836 1826.295564,2741.508167"/>
    <poly id="149701452" type="building" color="255,230,230" fill="1" layer="2.00" shape="1889.581311,2737.211618 1890.816647,2729.785458 1871.640425,2726.625034 1871.219592,2729.141047 1863.223616,2727.826030 1862.409135,2732.736179 1889.581311,2737.211618"/>
    <poly id="149701453" type="building" color="255,230,230" fill="1" layer="2.00" shape="1844.216720,2715.912470 1849.952001,2716.858244 1853.072472,2698.071126 1841.918521,2696.237039 1837.434645,2723.226203 1839.290731,2723.526316 1840.874111,2713.949826 1844.445473,2714.538076 1844.216720,2715.912470"/>
    <poly id="160305461" type="unknown" color="51,128,255" fill="0" layer="-1.00" shape="3641.246172,3533.067888 3618.906107,3510.377034 3610.155199,3502.076372 3604.982129,3498.725292 3600.366163,3497.718966 3595.246433,3498.362597 3591.722699,3500.004071 3587.277447,3503.903044 3585.345725,3505.798939 3532.186482,3559.611406 3528.404845,3563.015412 3525.689568,3564.906248 3522.495730,3565.917447 3518.952953,3566.427093 3515.538824,3566.105416 3512.243889,3565.052212 3509.403215,3563.191983 3506.243818,3560.242339 3448.687520,3503.061401 3429.749961,3483.766081 3407.577760,3460.877181 3398.259963,3451.696548 3383.378637,3435.523165 3380.658365,3432.731743 3364.175851,3414.983602 3357.845098,3408.174529 3306.564424,3356.482992 3290.349613,3340.867055 3281.581945,3332.355833 3278.747502,3329.508233 3245.574056,3296.152490 3221.374804,3270.665828 3211.086837,3260.303057 3201.787415,3250.934153 3194.176348,3243.273722 3151.396292,3200.270131 3146.156442,3194.921742 3138.711562,3187.417769 3135.588317,3184.279884 3134.809689,3183.498201 3122.124479,3170.712435 3103.551336,3152.019395 3051.733499,3099.837873 3030.465514,3078.420434 3025.365033,3073.283833 2997.097902,3044.820396 2950.187432,2997.486407 2946.783494,2994.158177 2942.094110,2989.434792 2931.149259,2978.413553 2900.318019,2947.371010 2889.934870,2936.619711 2877.010311,2923.965955 2841.586442,2888.134346 2779.950062,2825.850534 2774.698589,2820.868467 2765.908229,2811.603186 2762.811115,2808.465616 2744.578106,2790.030789 2658.906473,2703.395584 2642.247911,2686.546567 2636.473388,2680.706917 2599.952758,2643.926307 2562.180043,2605.972892 2558.015363,2601.752363 2547.577439,2591.167600 2543.386328,2586.946911 2518.335865,2561.712202 2418.648623,2461.310003 2414.308670,2456.933104 2370.025924,2412.148979 2367.199091,2409.390519 2358.982323,2401.183387 2356.164849,2398.336227 2344.194914,2386.244158 2295.815918,2337.395806 2280.515169,2322.830695 2267.011388,2309.564033 2259.661693,2302.072588 2217.602075,2259.178487 2174.080979,2214.766421 2171.447248,2212.086917 2159.757293,2200.196611 2156.056107,2196.423034 2155.469759,2195.842377 2153.535930,2193.888492 2136.113739,2176.314532 2028.962331,2068.269892 2016.501302,2055.698131 1983.046476,2022.046369 1980.753821,2019.724124 1966.166598,2004.942199 1961.082395,1999.806390 1955.263014,1993.944768 1860.262125,1898.161467 1785.386396,1822.765403 1782.516035,1819.862641 1770.544897,1807.693770 1756.297653,1793.347080 1652.373588,1688.689654 1650.439519,1686.735891 1635.255950,1671.362803 1622.198554,1658.199890 1543.205499,1578.597491 1541.122568,1576.498588 1530.016956,1565.234198 1526.603802,1561.784476 1499.552749,1534.365861 1468.755876,1503.140521 1445.484431,1479.673359 1402.379791,1436.355496 1395.842366,1429.702056 1381.979440,1415.658006 1379.765154,1413.425185 1371.993265,1405.587993 1360.650170,1394.200319 1296.435261,1329.415669 1288.313766,1321.121483 1283.260779,1316.496691 1280.546040,1314.005604 1271.285425,1306.192572 1262.561589,1298.449447 1256.953477,1293.865615 1249.905581,1287.120371 1159.607105,1195.912647 1150.670625,1186.914557 1148.902620,1185.128374 1139.841930,1176.273769 1136.268282,1173.089512 1131.565816,1168.722176 1122.300887,1160.132617 1111.742871,1149.859686 1081.153693,1118.759193 1061.635149,1099.055461 1051.648744,1088.897090 1043.529227,1080.203736 1033.413771,1068.114003 1024.812636,1058.962789 1018.494163,1052.410871 1017.356782,1051.183372 1013.742143,1047.488533 1010.048170,1043.804301 1004.648936,1038.145687 1002.837379,1036.270506 925.433447,958.403873 905.274712,938.130728 902.228817,935.027491 886.560318,919.286717 879.864081,912.543966 879.067750,911.706921 871.479176,903.982302 796.618896,828.862023 777.822833,810.328438 772.622993,805.137210 771.423686,803.942653 769.139428,801.576431 759.941141,792.044603 758.584592,790.638272 709.898565,741.398351 682.673113,714.247761 648.559752,679.920821 644.768568,676.236166 620.031160,651.198033 582.393240,612.700174 560.674843,590.820653 555.019382,585.194068 551.141461,581.275926 534.718371,564.843334 530.070926,560.010689 528.539030,558.459088 527.015671,556.951921 523.688668,553.680684 517.727602,547.608448 432.753318,461.722923 409.239913,437.968870 376.209320,404.814711 372.664435,401.142781 359.270532,387.613769 346.777770,375.077743 332.822856,361.090457 241.075344,268.730538 238.966873,266.376632 231.696672,258.244035 219.632495,243.236558 213.436869,236.552887 211.021588,233.953031 194.685806,217.421819 190.282365,212.956999 176.958452,199.406531 171.414003,192.815602 168.822068,188.838871 167.914385,187.457552 167.029630,185.199844 166.075621,182.742000 165.685249,181.752152 164.245389,173.710426 164.056654,168.516679 164.215191,162.703699 174.460354,40.417849 175.605199,25.923224 175.506025,21.939409 174.617487,18.849530 174.462102,18.327109 172.207373,15.384285 169.525889,13.093498 165.572747,11.338678 161.746012,10.527726"/>
    <poly id="165846551" type="building" color="255,230,230" fill="1" layer="2.00" shape="1590.377558,2044.153462 1592.799897,2029.933209 1608.018709,2032.502400 1606.199267,2043.242464 1605.605151,2046.722704 1603.185949,2046.319276 1598.242082,2045.478477 1590.377558,2044.153462"/>
    <poly id="165846552" type="amenity" color="237,199,199" fill="1" layer="2.00" shape="1714.783468,2124.450748 1735.262817,2127.874124 1742.405112,2085.556654 1771.400012,2090.409210 1771.976028,2087.017630 1773.731885,2076.621157 1776.100656,2062.567047 1772.960148,2062.037005 1726.617405,2054.279923 1714.783468,2124.450748"/>
    <poly id="165846552#1" type="building" color="255,230,230" fill="1" layer="2.00" shape="1714.783468,2124.450748 1735.262817,2127.874124 1742.405112,2085.556654 1771.400012,2090.409210 1771.976028,2087.017630 1773.731885,2076.621157 1776.100656,2062.567047 1772.960148,2062.037005 1726.617405,2054.279923 1714.783468,2124.450748"/>
    <poly id="165846553" type="building" color="255,230,230" fill="1" layer="2.00" shape="1605.267221,2048.662286 1605.605151,2046.722704 1606.199267,2043.242464 1608.143434,2043.565263 1610.922525,2027.216928 1610.816992,2027.194079 1608.978422,2026.883035 1610.066195,2020.498887 1625.513697,2023.113919 1624.343474,2030.007937 1622.724846,2029.731548 1620.082876,2045.270772 1621.701501,2045.547160 1620.723477,2051.277364 1605.267221,2048.662286"/>
    <poly id="165846554" type="leisure" color="207,245,201" fill="1" layer="0.00" shape="1579.856346,2042.379171 1587.193072,2043.612122 1590.377558,2044.153462 1592.799897,2029.933209 1608.018709,2032.502400 1608.978422,2026.883035 1610.066195,2020.498887 1593.378292,2017.676433 1588.298986,2021.605804 1582.955348,2024.146610 1581.081371,2035.163723 1579.856346,2042.379171"/>
    <poly id="165846555" type="building" color="255,230,230" fill="1" layer="2.00" shape="1665.729524,2033.373001 1707.084200,2040.344073 1693.736300,2118.882469 1652.382010,2111.911459 1659.147052,2072.121314 1665.729524,2033.373001"/>
    <poly id="165846556" type="building" color="255,230,230" fill="1" layer="2.00" shape="1771.976028,2087.017630 1798.507697,2091.466528 1797.483650,2097.496001 1803.606340,2098.521827 1804.196507,2095.685107 1810.868438,2054.008279 1778.257329,2048.633660 1776.217784,2060.737043 1782.155789,2061.728412 1779.476358,2077.578026 1773.731885,2076.621157 1771.976028,2087.017630"/>
    <poly id="165846557" type="building" color="255,230,230" fill="1" layer="2.00" shape="1577.052979,2058.394502 1584.451748,2059.561266 1584.808529,2057.422084 1592.427514,2058.579132 1592.071491,2060.596269 1600.861101,2061.849389 1603.185949,2046.319276 1598.242082,2045.478477 1597.675494,2048.781364 1586.626488,2046.915009 1587.193072,2043.612122 1579.856346,2042.379171 1577.052979,2058.394502"/>
    <poly id="165846558" type="building" color="255,230,230" fill="1" layer="2.00" shape="1641.493640,2064.577198 1651.416496,2066.270165 1657.339068,2031.656299 1657.887445,2028.453161 1647.964475,2026.771282 1641.493640,2064.577198"/>
    <poly id="165846559" type="building" color="255,230,230" fill="1" layer="2.00" shape="1619.096422,2060.820326 1637.350153,2063.896707 1643.776316,2026.190367 1642.861400,2026.040416 1642.971158,2025.386474 1638.950935,2024.706753 1638.841177,2025.360694 1632.085080,2024.220084 1632.194629,2023.599427 1627.655408,2022.827709 1627.545790,2023.459461 1625.513697,2023.113919 1624.343474,2030.007937 1621.701501,2045.547160 1620.723477,2051.277364 1619.096422,2060.820326"/>
    <poly id="165846560" type="unknown" color="51,128,255" fill="1" layer="-1.00" shape="1726.617405,2054.279923 1728.078310,2045.978623 1729.036786,2040.570075 1775.290989,2048.415377 1772.960148,2062.037005 1726.617405,2054.279923"/>
    <poly id="165846561" type="unknown" color="51,128,255" fill="0" layer="-1.00" shape="1583.586417,2016.150784 1588.298986,2021.605804 1591.492828,2026.296872 1589.904573,2036.683329 1581.081371,2035.163723 1570.146129,2033.409054"/>
    <poly id="171178110" type="building" color="255,230,230" fill="1" layer="2.00" shape="1587.206693,2633.076193 1600.780224,2635.246792 1602.474957,2624.716754 1602.649180,2623.608303 1600.071722,2623.192789 1601.125168,2616.653087 1603.746654,2617.068875 1604.625950,2611.626530 1591.017228,2609.444610 1590.165395,2614.720698 1592.760467,2615.136318 1591.688586,2621.809050 1589.093448,2621.404526 1587.206693,2633.076193"/>
    <poly id="171178111" type="building" color="255,230,230" fill="1" layer="2.00" shape="1550.295083,2627.176324 1551.742605,2618.153707 1554.364093,2618.569479 1556.480135,2605.423549 1553.867448,2605.007831 1555.305827,2596.040635 1571.940771,2598.696273 1570.420221,2608.128960 1567.455670,2607.655567 1565.403876,2620.380271 1567.708718,2620.738597 1566.261386,2629.727926 1550.295083,2627.176324"/>
    <poly id="171178116" type="building" color="255,230,230" fill="1" layer="2.00" shape="1526.147664,2623.320007 1501.885893,2619.440858 1505.256745,2598.502679 1529.518645,2602.370742 1526.147664,2623.320007"/>
    <poly id="171178120" type="building" color="255,230,230" fill="1" layer="2.00" shape="1580.389106,2631.990710 1566.261386,2629.727926 1567.708718,2620.738597 1569.375889,2610.385907 1583.512517,2612.637655 1580.389106,2631.990710"/>
    <poly id="171178123" type="building" color="255,230,230" fill="1" layer="2.00" shape="1580.389106,2631.990710 1587.206693,2633.076193 1589.093448,2621.404526 1590.165395,2614.720698 1591.017228,2609.444610 1584.199623,2608.359124 1583.512517,2612.637655 1580.389106,2631.990710"/>
    <poly id="171178124" type="building" color="255,230,230" fill="1" layer="2.00" shape="1608.626984,2636.505145 1600.780224,2635.246792 1602.474957,2624.716754 1604.181591,2624.982595 1604.703705,2621.746001 1603.032292,2621.480380 1603.746654,2617.068875 1604.625950,2611.626530 1612.437580,2612.873571 1608.626984,2636.505145"/>
    <poly id="172111624" type="parking" color="184,184,179" fill="1" layer="-2.00" shape="1350.167262,2295.633359 1367.435364,2298.536601 1364.364036,2316.658459 1348.749774,2314.031778 1347.095971,2313.755223 1350.167262,2295.633359"/>
    <poly id="172111626" type="parking" color="184,184,179" fill="1" layer="-2.00" shape="1311.070723,2325.126351 1310.796439,2326.755669 1319.707635,2328.242250 1321.199046,2319.208776 1321.986065,2314.420460 1323.468675,2305.386933 1324.118242,2301.463202 1325.714436,2292.574620 1318.677014,2291.388137 1317.086468,2300.787142 1315.221532,2300.475999 1311.070723,2325.126351"/>
    <poly id="173695331" type="building" color="255,230,230" fill="1" layer="2.00" shape="1869.652786,2488.938306 1864.332992,2521.414423 1863.746767,2525.027843 1852.240576,2523.158252 1853.348388,2516.408108 1853.531590,2515.277527 1854.703407,2508.150542 1855.747428,2501.743955 1856.864398,2494.938392 1857.047462,2493.830001 1858.155281,2487.079858 1869.652786,2488.938306"/>
    <poly id="173695332" type="building" color="255,230,230" fill="1" layer="2.00" shape="1890.912634,2529.214754 1906.905172,2531.811561 1907.857487,2525.992460 1908.535127,2521.847039 1904.224658,2521.154265 1906.724477,2505.880512 1911.351531,2506.641845 1911.708729,2504.447201 1913.091408,2496.001195 1896.782156,2493.346913 1895.042229,2503.998661 1898.789648,2504.610229 1898.203685,2508.179266 1894.878441,2507.648015 1893.550633,2515.772602 1896.594310,2516.268799 1896.035531,2519.715958 1892.560808,2519.150484 1890.912634,2529.214754"/>
    <poly id="173695333" type="building" color="255,230,230" fill="1" layer="2.00" shape="1796.809381,2520.192439 1807.928497,2522.004050 1808.276376,2519.887011 1814.337390,2520.868084 1813.989510,2522.985123 1821.167694,2524.150726 1821.497478,2522.111241 1831.631356,2523.761377 1831.292764,2525.800806 1834.925846,2526.389437 1838.972364,2527.047234 1839.942659,2521.161666 1840.364188,2518.534702 1838.024245,2518.153889 1841.696165,2495.686560 1843.895366,2496.044301 1844.389775,2493.029455 1844.572837,2491.921064 1845.699022,2485.048985 1803.685313,2478.228381 1796.809381,2520.192439"/>
    <poly id="173695334" type="building" color="255,230,230" fill="1" layer="2.00" shape="1845.699022,2485.048985 1858.155281,2487.079858 1857.047462,2493.830001 1852.297190,2493.056831 1852.114126,2494.165221 1856.864398,2494.938392 1855.747428,2501.743955 1850.900370,2500.959083 1849.847617,2507.354520 1854.703407,2508.150542 1853.531590,2515.277527 1849.062825,2514.550505 1848.879623,2515.681085 1853.348388,2516.408108 1852.240576,2523.158252 1839.942659,2521.161666 1840.364188,2518.534702 1841.068976,2514.267396 1846.320658,2515.121371 1846.512943,2513.946466 1841.428354,2513.126824 1842.517852,2506.487518 1848.068575,2507.398845 1849.139842,2500.859284 1843.263522,2499.912629 1843.895366,2496.044301 1844.389775,2493.029455 1848.647430,2493.721866 1848.830493,2492.613475 1844.572837,2491.921064 1845.699022,2485.048985"/>
    <poly id="173695335" type="building" color="255,230,230" fill="1" layer="2.00" shape="1880.807082,2490.761332 1869.652786,2488.938306 1864.332992,2521.414423 1875.487315,2523.226347 1880.807082,2490.761332"/>
    <poly id="173695336" type="building" color="255,230,230" fill="1" layer="2.00" shape="1882.511767,2527.841704 1874.928893,2526.618033 1875.487315,2523.226347 1880.807082,2490.761332 1888.381182,2491.984953 1882.511767,2527.841704"/>
    <poly id="173695337" type="building" color="255,230,230" fill="1" layer="2.00" shape="1906.905172,2531.811561 1923.443076,2534.500586 1929.321472,2498.643917 1913.091408,2496.001195 1911.708729,2504.447201 1913.740831,2504.770625 1910.197424,2526.373293 1907.857487,2525.992460 1906.905172,2531.811561"/>
    <poly id="173695338" type="building" color="255,230,230" fill="1" layer="2.00" shape="1810.609645,2507.275080 1813.338742,2490.515956 1817.798717,2491.242904 1816.196256,2501.052279 1815.167065,2500.879401 1814.251146,2506.521214 1825.247141,2508.309886 1825.989020,2503.743237 1824.519975,2503.501029 1825.994304,2494.467530 1830.463082,2495.194540 1827.734160,2511.920373 1811.996640,2509.369700 1810.609645,2507.275080"/>
    <poly id="173695339" type="parking" color="184,184,179" fill="1" layer="-2.00" shape="1890.912634,2529.214754 1892.560808,2519.150484 1895.042229,2503.998661 1896.782156,2493.346913 1888.381182,2491.984953 1882.511767,2527.841704 1890.912634,2529.214754"/>
    <poly id="173725078" type="building" color="255,230,230" fill="1" layer="2.00" shape="1351.092110,2062.935968 1357.329546,2027.047896 1412.010697,2036.474628 1405.773028,2072.362663 1351.092110,2062.935968"/>
    <poly id="173725084" type="building" color="255,230,230" fill="1" layer="2.00" shape="1351.092110,2062.935968 1357.329546,2027.047896 1337.017599,2023.548839 1330.780249,2059.436926 1351.092110,2062.935968"/>
    <poly id="173725085" type="building" color="255,230,230" fill="1" layer="2.00" shape="1371.170154,2123.940892 1396.118369,2128.134562 1402.115168,2092.733218 1377.166779,2088.550626 1371.170154,2123.940892"/>
    <poly id="173725090" type="building" color="255,230,230" fill="1" layer="2.00" shape="1320.602298,2057.687287 1330.780249,2059.436926 1337.017599,2023.548839 1337.364685,2021.542732 1327.969728,2019.908897 1327.613769,2021.926044 1326.839673,2021.788098 1320.602298,2057.687287"/>
    <poly id="197354891" type="building" color="255,230,230" fill="1" layer="2.00" shape="1815.221700,2777.498793 1839.218231,2781.454881 1843.070816,2758.245286 1819.083024,2754.289243 1815.221700,2777.498793"/>
    <poly id="197354892" type="building" color="255,230,230" fill="1" layer="2.00" shape="1784.995625,2733.405041 1781.313393,2757.558834 1775.155347,2756.632652 1778.910712,2732.046594 1760.920448,2729.326573 1755.218256,2766.715626 1795.878703,2772.861812 1798.211234,2757.542595 1796.020698,2757.218205 1797.407044,2748.161956 1800.521220,2748.636371 1802.440439,2736.044032 1784.995625,2733.405041"/>
    <poly id="197354893" type="building" color="255,230,230" fill="1" layer="2.00" shape="1734.037972,2762.988211 1694.033107,2756.191802 1695.340023,2748.555250 1698.225131,2749.050385 1703.105260,2720.576848 1716.976816,2722.938126 1712.699770,2747.898190 1722.041272,2749.487765 1726.373396,2724.172998 1740.280161,2726.534536 1734.037972,2762.988211"/>
    <poly id="197354894" type="building" color="255,230,230" fill="1" layer="2.00" shape="1880.869073,2788.317802 1887.219543,2750.145120 1862.140950,2746.015677 1859.899091,2759.493612 1866.848198,2760.646726 1865.045749,2771.453427 1858.096651,2770.300314 1855.790594,2784.188377 1880.869073,2788.317802"/>
    <poly id="206723692" type="amenity" color="237,199,199" fill="1" layer="2.00" shape="2134.469166,2272.379108 2162.776775,2277.162154 2163.224774,2273.148449 2186.869760,2250.685192 2153.419219,2217.986933 2143.760181,2216.394877 2134.469166,2272.379108"/>